* PEX produced on Sat Mar 28 10:03:40 PM CET 2026 using /foss/tools/sak/sak-pex.sh with m=3 and s=1
* NGSPICE file created from iqmod_mfb_lpf_pex.ext - technology: ihp-sg13g2

.subckt iqmod_mfb_lpf_pex voutp vinp voutn vinn VDD VSS di_filter_en
X0 VSS.t48 iqmod_mfb_lpf_pex_half_0.iqmod_mfb_lpf_pex_ota_core_hybrid_bm_half_0.iqmod_mfb_lpf_pex_ota_core_inv_NF20$1_1.vin.t0 voutn.t15 VSS.t47 sg13_lv_nmos ad=0.19p pd=1.38u as=0.19p ps=1.38u w=1u l=1u
X1 VSS.t205 iqmod_mfb_lpf_pex_half_1.iqmod_mfb_lpf_pex_ota_core_hybrid_bm_half_0.iqmod_mfb_lpf_pex_ota_core_tg$1_0.v_b.t38 voutn.t25 VSS.t204 sg13_lv_nmos ad=0.19p pd=1.38u as=0.19p ps=1.38u w=1u l=1u
X2 iqmod_mfb_lpf_pex_half_1.iqmod_mfb_lpf_pex_ota_core_hybrid_bm_half_0.iqmod_mfb_lpf_pex_ota_core_tg$1_0.v_b.t20 iqmod_mfb_lpf_pex_half_1.iqmod_mfb_lpf_pex_ota_core_hybrid_bm_half_0.iqmod_mfb_lpf_pex_ota_core_tg$1_0.v_a.t0 VDD.t50 VDD.t0 sg13_lv_pmos ad=1.14p pd=6.38u as=1.14p ps=6.38u w=6u l=1u
X3 VSS.t104 VSS.t101 VSS.t103 VSS.t102 sg13_lv_nmos ad=0.34p pd=2.68u as=0 ps=0 w=1u l=1u
X4 iqmod_mfb_lpf_pex_half_1.iqmod_mfb_lpf_pex_ota_core_hybrid_bm_half_0.iqmod_mfb_lpf_pex_ota_core_inv_NF20$1_0.vout.t41 voutp.t43 VSS.t334 VSS.t293 sg13_lv_nmos ad=0.19p pd=1.38u as=0.19p ps=1.38u w=1u l=1u
X5 VDD.t97 voutn.t43 iqmod_mfb_lpf_pex_half_1.iqmod_mfb_lpf_pex_ota_core_hybrid_bm_half_0.iqmod_mfb_lpf_pex_ota_core_inv_NF20$1_0.vout.t31 VDD.t6 sg13_lv_pmos ad=1.14p pd=6.38u as=1.14p ps=6.38u w=6u l=1u
X6 voutn.t12 iqmod_mfb_lpf_pex_half_0.iqmod_mfb_lpf_pex_ota_core_hybrid_bm_half_0.iqmod_mfb_lpf_pex_ota_core_inv_NF20$1_1.vin.t0 VDD.t28 VDD.t6 sg13_lv_pmos ad=1.14p pd=6.38u as=1.14p ps=6.38u w=6u l=1u
X7 iqmod_mfb_lpf_pex_half_1.iqmod_mfb_lpf_pex_ota_core_hybrid_bm_half_0.iqmod_mfb_lpf_pex_ota_core_tg$1_0.v_b.t29 iqmod_mfb_lpf_pex_half_1.iqmod_mfb_lpf_pex_ota_core_hybrid_bm_half_0.iqmod_mfb_lpf_pex_ota_core_tg$1_0.di_tg_ctrl_n.t3 iqmod_mfb_lpf_pex_half_1.iqmod_mfb_lpf_pex_ota_core_hybrid_bm_half_0.iqmod_mfb_lpf_pex_ota_core_tg$1_0.v_a.t0 VDD.t0 sg13_lv_pmos ad=1.14p pd=6.38u as=1.14p ps=6.38u w=6u l=0.13u
X8 VSS.t15 VSS.t16 VSS.t14 rhigh l=27u w=0.5u
X9 iqmod_mfb_lpf_pex_half_1.iqmod_mfb_lpf_pex_ota_core_hybrid_bm_half_0.iqmod_mfb_lpf_pex_ota_core_tg$1_0.v_a.t1 iqmod_mfb_lpf_pex_half_0.iqmod_mfb_lpf_pex_ota_core_hybrid_bm_half_0.iqmod_mfb_lpf_pex_ota_core_inv_NF20$1_1.vin.t0 VDD.t13 VDD.t6 sg13_lv_pmos ad=1.14p pd=6.38u as=1.14p ps=6.38u w=6u l=1u
X10 VSS.t269 iqmod_mfb_lpf_pex_half_1.iqmod_mfb_lpf_pex_ota_core_hybrid_bm_half_0.iqmod_mfb_lpf_pex_ota_core_tg$1_0.v_b.t37 voutp.t14 VSS.t225 sg13_lv_nmos ad=0.19p pd=1.38u as=0.19p ps=1.38u w=1u l=1u
X11 iqmod_mfb_lpf_pex_half_1.iqmod_mfb_lpf_pex_ota_core_hybrid_bm_half_0.iqmod_mfb_lpf_pex_ota_core_inv_NF6$1_1.vout.t11 iqmod_mfb_lpf_pex_half_1.iqmod_mfb_lpf_pex_ota_core_hybrid_bm_half_0.iqmod_mfb_lpf_pex_ota_core_inv_NF20$1_0.vout.t58 VSS.t392 VSS.t201 sg13_lv_nmos ad=0.19p pd=1.38u as=0.19p ps=1.38u w=1u l=1u
X12 VSS.t323 VSS.t324 VSS.t23 rhigh l=31u w=0.5u
X13 iqmod_mfb_lpf_pex_half_1.vinp.t1 iqmod_mfb_lpf_pex_half_1.iqmod_mfb_lpf_pex_ota_core_hybrid_bm_half_0.iqmod_mfb_lpf_pex_ota_core_tg$1_0.di_tg_ctrl_n.t4 iqmod_mfb_lpf_pex_half_1.iqmod_mfb_lpf_pex_ota_core_hybrid_bm_half_0.iqmod_mfb_lpf_pex_ota_core_inv_NF20$1_1.vin.t0 VDD.t0 sg13_lv_pmos ad=1.14p pd=6.38u as=1.14p ps=6.38u w=6u l=0.13u
X14 VSS.t248 VSS.t249 VSS.t71 rhigh l=60u w=0.5u
X15 voutp.t18 iqmod_mfb_lpf_pex_half_1.iqmod_mfb_lpf_pex_ota_core_hybrid_bm_half_0.iqmod_mfb_lpf_pex_ota_core_tg$1_0.v_b.t37 VSS.t271 VSS.t230 sg13_lv_nmos ad=0.19p pd=1.38u as=0.19p ps=1.38u w=1u l=1u
X16 VDD.t175 iqmod_mfb_lpf_pex_half_1.iqmod_mfb_lpf_pex_ota_core_hybrid_bm_half_0.iqmod_mfb_lpf_pex_ota_core_tg$1_0.v_b.t36 voutp.t5 VDD.t0 sg13_lv_pmos ad=1.14p pd=6.38u as=1.14p ps=6.38u w=6u l=1u
X17 iqmod_mfb_lpf_pex_half_1.C2_half.t7 iqmod_mfb_lpf_pex_half_1.iqmod_mfb_lpf_pex_R2_0.v_a.t0 cap_cmim l=8u w=8u
X18 iqmod_mfb_lpf_pex_half_1.iqmod_mfb_lpf_pex_ota_core_hybrid_bm_half_0.iqmod_mfb_lpf_pex_ota_core_inv_NF20$1_0.vout.t50 voutp.t42 VDD.t234 VDD.t0 sg13_lv_pmos ad=1.14p pd=6.38u as=1.14p ps=6.38u w=6u l=1u
X19 VDD.t70 VDD.t68 VDD.t69 VDD.t6 sg13_lv_pmos ad=2.04p pd=12.68u as=0 ps=0 w=6u l=1u
X20 VSS.t95 iqmod_mfb_lpf_pex_half_0.iqmod_mfb_lpf_pex_ota_core_hybrid_bm_half_0.iqmod_mfb_lpf_pex_ota_core_tg$1_0.di_tg_ctrl_n.t3 iqmod_mfb_lpf_pex_half_0.iqmod_mfb_lpf_pex_ota_core_hybrid_bm_half_0.iqmod_mfb_lpf_pex_ota_core_spdt_switch$1_0.iqmod_mfb_lpf_pex_ota_core_spdt_switch_inv$2_0.vout.t1 VSS.t79 sg13_lv_nmos ad=0.19p pd=1.38u as=0.19p ps=1.38u w=1u l=0.13u
X21 VSS.t173 VSS.t171 VSS.t172 VSS.t121 sg13_lv_nmos ad=0.34p pd=2.68u as=0 ps=0 w=1u l=1u
X22 voutn.t27 iqmod_mfb_lpf_pex_half_1.iqmod_mfb_lpf_pex_ota_core_hybrid_bm_half_0.iqmod_mfb_lpf_pex_ota_core_tg$1_0.v_b.t38 VSS.t226 VSS.t227 sg13_lv_nmos ad=0.19p pd=1.38u as=0.19p ps=1.38u w=1u l=1u
X23 iqmod_mfb_lpf_pex_half_1.iqmod_mfb_lpf_pex_ota_core_hybrid_bm_half_0.iqmod_mfb_lpf_pex_ota_core_inv_NF6$1_1.vout.t22 iqmod_mfb_lpf_pex_half_1.iqmod_mfb_lpf_pex_ota_core_hybrid_bm_half_0.iqmod_mfb_lpf_pex_ota_core_tg$1_0.di_tg_ctrl_n.t2 iqmod_mfb_lpf_pex_half_1.iqmod_mfb_lpf_pex_ota_core_hybrid_bm_half_0.iqmod_mfb_lpf_pex_ota_core_inv_NF20$1_0.vout.t32 VDD.t0 sg13_lv_pmos ad=1.14p pd=6.38u as=1.14p ps=6.38u w=6u l=0.13u
X24 iqmod_mfb_lpf_pex_half_1.iqmod_mfb_lpf_pex_ota_core_hybrid_bm_half_0.iqmod_mfb_lpf_pex_ota_core_inv_NF6$1_1.vout.t19 iqmod_mfb_lpf_pex_half_1.iqmod_mfb_lpf_pex_ota_core_hybrid_bm_half_0.iqmod_mfb_lpf_pex_ota_core_inv_NF20$1_0.vout.t56 VDD.t150 VDD.t0 sg13_lv_pmos ad=1.14p pd=6.38u as=1.14p ps=6.38u w=6u l=1u
X25 iqmod_mfb_lpf_pex_half_1.iqmod_mfb_lpf_pex_ota_core_hybrid_bm_half_0.iqmod_mfb_lpf_pex_ota_core_inv_NF6$1_1.vout.t5 di_filter_en.t4 iqmod_mfb_lpf_pex_half_1.iqmod_mfb_lpf_pex_ota_core_hybrid_bm_half_0.iqmod_mfb_lpf_pex_ota_core_inv_NF20$1_0.vout.t10 VSS.t244 sg13_lv_nmos ad=0.19p pd=1.38u as=0.19p ps=1.38u w=1u l=0.13u
X26 iqmod_mfb_lpf_pex_half_1.iqmod_mfb_lpf_pex_ota_core_hybrid_bm_half_0.iqmod_mfb_lpf_pex_ota_core_tg$1_0.v_b.t7 iqmod_mfb_lpf_pex_half_1.iqmod_mfb_lpf_pex_ota_core_hybrid_bm_half_0.iqmod_mfb_lpf_pex_ota_core_inv_NF6$1_1.vout.t25 VSS.t315 VSS.t316 sg13_lv_nmos ad=0.19p pd=1.38u as=0.19p ps=1.38u w=1u l=1u
X27 VDD.t39 iqmod_mfb_lpf_pex_half_0.iqmod_mfb_lpf_pex_ota_core_hybrid_bm_half_0.iqmod_mfb_lpf_pex_ota_core_tg$1_0.di_tg_ctrl_n.t8 iqmod_mfb_lpf_pex_half_0.iqmod_mfb_lpf_pex_ota_core_hybrid_bm_half_0.iqmod_mfb_lpf_pex_ota_core_spdt_switch$1_0.iqmod_mfb_lpf_pex_ota_core_spdt_switch_inv$2_0.vout.t0 VDD.t6 sg13_lv_pmos ad=1.14p pd=6.38u as=1.14p ps=6.38u w=6u l=0.13u
X28 iqmod_mfb_lpf_pex_half_0.vinp.t1 iqmod_mfb_lpf_pex_half_0.iqmod_mfb_lpf_pex_ota_core_hybrid_bm_half_0.iqmod_mfb_lpf_pex_ota_core_tg$1_0.di_tg_ctrl_n.t7 iqmod_mfb_lpf_pex_half_0.iqmod_mfb_lpf_pex_ota_core_hybrid_bm_half_0.iqmod_mfb_lpf_pex_ota_core_inv_NF20$1_1.vin.t0 VDD.t6 sg13_lv_pmos ad=1.14p pd=6.38u as=1.14p ps=6.38u w=6u l=0.13u
X29 VDD.t211 voutn.t43 iqmod_mfb_lpf_pex_half_1.iqmod_mfb_lpf_pex_ota_core_hybrid_bm_half_0.iqmod_mfb_lpf_pex_ota_core_inv_NF20$1_0.vout.t22 VDD.t6 sg13_lv_pmos ad=1.14p pd=6.38u as=1.14p ps=6.38u w=6u l=1u
X30 voutn.t15 iqmod_mfb_lpf_pex_half_0.iqmod_mfb_lpf_pex_ota_core_hybrid_bm_half_0.iqmod_mfb_lpf_pex_ota_core_inv_NF20$1_1.vin.t0 VSS.t45 VSS.t46 sg13_lv_nmos ad=0.19p pd=1.38u as=0.19p ps=1.38u w=1u l=1u
X31 iqmod_mfb_lpf_pex_half_1.iqmod_mfb_lpf_pex_R1_0.v_b.t8 iqmod_mfb_lpf_pex_half_1.C1_half.t3 cap_cmim l=8u w=8u
X32 iqmod_mfb_lpf_pex_half_1.iqmod_mfb_lpf_pex_ota_core_hybrid_bm_half_0.iqmod_mfb_lpf_pex_ota_core_inv_NF20$1_0.vout.t24 voutn.t43 VDD.t212 VDD.t6 sg13_lv_pmos ad=1.14p pd=6.38u as=1.14p ps=6.38u w=6u l=1u
X33 voutp.t41 iqmod_mfb_lpf_pex_half_1.vinp.t9 cap_cmim l=8u w=8u
X34 iqmod_mfb_lpf_pex_half_1.iqmod_mfb_lpf_pex_ota_core_hybrid_bm_half_0.iqmod_mfb_lpf_pex_ota_core_tg$1_0.v_b.t11 iqmod_mfb_lpf_pex_half_1.iqmod_mfb_lpf_pex_ota_core_hybrid_bm_half_0.iqmod_mfb_lpf_pex_ota_core_inv_NF6$1_1.vout.t27 VDD.t43 VDD.t6 sg13_lv_pmos ad=1.14p pd=6.38u as=1.14p ps=6.38u w=6u l=1u
X35 a_13404_n4303.t1 iqmod_mfb_lpf_pex_half_1.iqmod_mfb_lpf_pex_R2_0.v_a.t5 VSS.t20 rhigh l=59u w=0.5u
X36 vinn.t0 a_6122_n4303.t1 VSS.t194 rhigh l=27u w=0.5u
X37 VSS.t281 voutn.t42 iqmod_mfb_lpf_pex_half_1.iqmod_mfb_lpf_pex_ota_core_hybrid_bm_half_0.iqmod_mfb_lpf_pex_ota_core_inv_NF20$1_0.vout.t13 VSS.t280 sg13_lv_nmos ad=0.19p pd=1.38u as=0.19p ps=1.38u w=1u l=1u
X38 iqmod_mfb_lpf_pex_half_1.iqmod_mfb_lpf_pex_R1_0.v_b.t9 iqmod_mfb_lpf_pex_half_1.C1_half.t2 cap_cmim l=8u w=8u
X39 VDD.t52 VDD.t116 VDD.t52 VDD.t0 sg13_lv_pmos ad=1.14p pd=6.38u as=0 ps=0 w=6u l=1u
X40 VSS.t148 VSS.t146 VSS.t78 VSS.t90 sg13_lv_nmos ad=0.34p pd=2.68u as=0 ps=0 w=1u l=0.13u
X41 VSS.t311 VSS.t312 VSS.t74 rhigh l=59u w=0.5u
X42 iqmod_mfb_lpf_pex_half_1.C2_half.t6 iqmod_mfb_lpf_pex_half_1.iqmod_mfb_lpf_pex_R2_0.v_a.t3 cap_cmim l=8u w=8u
X43 VSS.t255 iqmod_mfb_lpf_pex_half_1.iqmod_mfb_lpf_pex_ota_core_hybrid_bm_half_0.iqmod_mfb_lpf_pex_ota_core_tg$1_0.v_b.t37 voutp.t11 VSS.t204 sg13_lv_nmos ad=0.19p pd=1.38u as=0.19p ps=1.38u w=1u l=1u
X44 VSS.t392 iqmod_mfb_lpf_pex_half_1.iqmod_mfb_lpf_pex_ota_core_hybrid_bm_half_0.iqmod_mfb_lpf_pex_ota_core_inv_NF20$1_0.vout.t58 iqmod_mfb_lpf_pex_half_1.iqmod_mfb_lpf_pex_ota_core_hybrid_bm_half_0.iqmod_mfb_lpf_pex_ota_core_inv_NF6$1_1.vout.t10 VSS.t199 sg13_lv_nmos ad=0.19p pd=1.38u as=0.19p ps=1.38u w=1u l=1u
X45 VSS.t257 iqmod_mfb_lpf_pex_half_1.iqmod_mfb_lpf_pex_ota_core_hybrid_bm_half_0.iqmod_mfb_lpf_pex_ota_core_tg$1_0.v_b.t37 voutp.t12 VSS.t207 sg13_lv_nmos ad=0.19p pd=1.38u as=0.19p ps=1.38u w=1u l=1u
X46 iqmod_mfb_lpf_pex_half_1.iqmod_mfb_lpf_pex_ota_core_hybrid_bm_half_0.iqmod_mfb_lpf_pex_ota_core_inv_NF6$1_1.vout.t18 iqmod_mfb_lpf_pex_half_1.iqmod_mfb_lpf_pex_ota_core_hybrid_bm_half_0.iqmod_mfb_lpf_pex_ota_core_inv_NF20$1_0.vout.t56 VDD.t134 VDD.t0 sg13_lv_pmos ad=1.14p pd=6.38u as=1.14p ps=6.38u w=6u l=1u
X47 VSS.t329 voutp.t43 iqmod_mfb_lpf_pex_half_1.iqmod_mfb_lpf_pex_ota_core_hybrid_bm_half_0.iqmod_mfb_lpf_pex_ota_core_inv_NF20$1_0.vout.t37 VSS.t280 sg13_lv_nmos ad=0.19p pd=1.38u as=0.19p ps=1.38u w=1u l=1u
X48 VDD.t189 iqmod_mfb_lpf_pex_half_1.iqmod_mfb_lpf_pex_ota_core_hybrid_bm_half_0.iqmod_mfb_lpf_pex_ota_core_tg$1_0.v_b.t39 voutn.t31 VDD.t6 sg13_lv_pmos ad=1.14p pd=6.38u as=1.14p ps=6.38u w=6u l=1u
X49 voutn.t25 iqmod_mfb_lpf_pex_half_1.iqmod_mfb_lpf_pex_ota_core_hybrid_bm_half_0.iqmod_mfb_lpf_pex_ota_core_tg$1_0.v_b.t38 VSS.t115 VSS.t203 sg13_lv_nmos ad=0.19p pd=1.38u as=0.19p ps=1.38u w=1u l=1u
X50 VSS.t95 VSS.t93 VSS.t95 VSS.t94 sg13_lv_nmos ad=0.19p pd=1.38u as=0 ps=0 w=1u l=0.13u
X51 iqmod_mfb_lpf_pex_half_1.iqmod_mfb_lpf_pex_ota_core_hybrid_bm_half_0.iqmod_mfb_lpf_pex_ota_core_inv_NF20$1_0.vout.t39 voutp.t43 VSS.t330 VSS.t290 sg13_lv_nmos ad=0.19p pd=1.38u as=0.19p ps=1.38u w=1u l=1u
X52 VSS.t126 iqmod_mfb_lpf_pex_half_1.iqmod_mfb_lpf_pex_ota_core_hybrid_bm_half_0.iqmod_mfb_lpf_pex_ota_core_inv_NF6$1_1.vout.t26 iqmod_mfb_lpf_pex_half_1.iqmod_mfb_lpf_pex_ota_core_hybrid_bm_half_0.iqmod_mfb_lpf_pex_ota_core_tg$1_0.v_b.t5 VSS.t320 sg13_lv_nmos ad=0.19p pd=1.38u as=0.19p ps=1.38u w=1u l=1u
X53 VSS.t163 VSS.t161 VSS.t162 VSS.t109 sg13_lv_nmos ad=0.34p pd=2.68u as=0 ps=0 w=1u l=1u
X54 iqmod_mfb_lpf_pex_half_1.iqmod_mfb_lpf_pex_ota_core_hybrid_bm_half_0.iqmod_mfb_lpf_pex_ota_core_inv_NF20$1_0.vout.t11 di_filter_en.t4 iqmod_mfb_lpf_pex_half_1.iqmod_mfb_lpf_pex_ota_core_hybrid_bm_half_0.iqmod_mfb_lpf_pex_ota_core_inv_NF6$1_1.vout.t5 VSS.t245 sg13_lv_nmos ad=0.34p pd=2.68u as=0.19p ps=1.38u w=1u l=0.13u
X55 voutn.t38 iqmod_mfb_lpf_pex_half_1.iqmod_mfb_lpf_pex_ota_core_hybrid_bm_half_0.iqmod_mfb_lpf_pex_ota_core_tg$1_0.v_b.t39 VDD.t191 VDD.t6 sg13_lv_pmos ad=1.14p pd=6.38u as=1.14p ps=6.38u w=6u l=1u
X56 iqmod_mfb_lpf_pex_half_1.C2_half.t8 iqmod_mfb_lpf_pex_half_1.iqmod_mfb_lpf_pex_R2_0.v_a.t2 cap_cmim l=8u w=8u
X57 iqmod_mfb_lpf_pex_half_1.iqmod_mfb_lpf_pex_ota_core_hybrid_bm_half_0.iqmod_mfb_lpf_pex_ota_core_inv_NF6$1_1.vout.t3 di_filter_en.t4 iqmod_mfb_lpf_pex_half_1.iqmod_mfb_lpf_pex_ota_core_hybrid_bm_half_0.iqmod_mfb_lpf_pex_ota_core_inv_NF20$1_0.vout.t8 VSS.t240 sg13_lv_nmos ad=0.19p pd=1.38u as=0.34p ps=2.68u w=1u l=0.13u
X58 VSS.t334 voutp.t43 iqmod_mfb_lpf_pex_half_1.iqmod_mfb_lpf_pex_ota_core_hybrid_bm_half_0.iqmod_mfb_lpf_pex_ota_core_inv_NF20$1_0.vout.t40 VSS.t291 sg13_lv_nmos ad=0.19p pd=1.38u as=0.19p ps=1.38u w=1u l=1u
X59 voutp.t25 iqmod_mfb_lpf_pex_half_1.iqmod_mfb_lpf_pex_ota_core_hybrid_bm_half_0.iqmod_mfb_lpf_pex_ota_core_inv_NF20$1_1.vin.t0 VSS.t362 VSS.t46 sg13_lv_nmos ad=0.19p pd=1.38u as=0.19p ps=1.38u w=1u l=1u
X60 voutp.t10 iqmod_mfb_lpf_pex_half_1.iqmod_mfb_lpf_pex_ota_core_hybrid_bm_half_0.iqmod_mfb_lpf_pex_ota_core_tg$1_0.v_b.t36 VDD.t124 VDD.t0 sg13_lv_pmos ad=1.14p pd=6.38u as=1.14p ps=6.38u w=6u l=1u
X61 iqmod_mfb_lpf_pex_half_1.iqmod_mfb_lpf_pex_ota_core_hybrid_bm_half_0.iqmod_mfb_lpf_pex_ota_core_inv_NF20$1_0.vout.t31 voutn.t43 VDD.t227 VDD.t6 sg13_lv_pmos ad=1.14p pd=6.38u as=1.14p ps=6.38u w=6u l=1u
X62 VDD.t148 iqmod_mfb_lpf_pex_half_1.iqmod_mfb_lpf_pex_ota_core_hybrid_bm_half_0.iqmod_mfb_lpf_pex_ota_core_inv_NF20$1_0.vout.t56 iqmod_mfb_lpf_pex_half_1.iqmod_mfb_lpf_pex_ota_core_hybrid_bm_half_0.iqmod_mfb_lpf_pex_ota_core_inv_NF6$1_1.vout.t19 VDD.t0 sg13_lv_pmos ad=1.14p pd=6.38u as=1.14p ps=6.38u w=6u l=1u
X63 iqmod_mfb_lpf_pex_half_1.iqmod_mfb_lpf_pex_ota_core_hybrid_bm_half_0.iqmod_mfb_lpf_pex_ota_core_inv_NF6$1_1.vout.t7 di_filter_en.t1 iqmod_mfb_lpf_pex_half_1.iqmod_mfb_lpf_pex_ota_core_hybrid_bm_half_0.iqmod_mfb_lpf_pex_ota_core_inv_NF20$1_0.vout.t7 VSS.t242 sg13_lv_nmos ad=0.19p pd=1.38u as=0.19p ps=1.38u w=1u l=0.13u
X64 VDD.t271 iqmod_mfb_lpf_pex_half_1.iqmod_mfb_lpf_pex_ota_core_hybrid_bm_half_0.iqmod_mfb_lpf_pex_ota_core_inv_NF20$1_1.vin.t0 voutp.t24 VDD.t0 sg13_lv_pmos ad=1.14p pd=6.38u as=1.14p ps=6.38u w=6u l=1u
X65 voutn.t10 iqmod_mfb_lpf_pex_half_0.iqmod_mfb_lpf_pex_ota_core_hybrid_bm_half_0.iqmod_mfb_lpf_pex_ota_core_inv_NF20$1_1.vin.t0 VSS.t64 VSS.t65 sg13_lv_nmos ad=0.19p pd=1.38u as=0.19p ps=1.38u w=1u l=1u
X66 iqmod_mfb_lpf_pex_half_1.iqmod_mfb_lpf_pex_ota_core_hybrid_bm_half_0.iqmod_mfb_lpf_pex_ota_core_inv_NF20$1_0.vout.t42 voutp.t43 VSS.t337 VSS.t285 sg13_lv_nmos ad=0.19p pd=1.38u as=0.19p ps=1.38u w=1u l=1u
X67 VSS.t286 voutn.t42 iqmod_mfb_lpf_pex_half_1.iqmod_mfb_lpf_pex_ota_core_hybrid_bm_half_0.iqmod_mfb_lpf_pex_ota_core_inv_NF20$1_0.vout.t17 VSS.t294 sg13_lv_nmos ad=0.19p pd=1.38u as=0.19p ps=1.38u w=1u l=1u
X68 VDD.t110 VDD.t108 VDD.t109 VDD.t0 sg13_lv_pmos ad=2.04p pd=12.68u as=0 ps=0 w=6u l=1u
X69 iqmod_mfb_lpf_pex_half_1.iqmod_mfb_lpf_pex_ota_core_hybrid_bm_half_0.iqmod_mfb_lpf_pex_ota_core_inv_NF20$1_0.vout.t9 di_filter_en.t4 iqmod_mfb_lpf_pex_half_1.iqmod_mfb_lpf_pex_ota_core_hybrid_bm_half_0.iqmod_mfb_lpf_pex_ota_core_inv_NF6$1_1.vout.t3 VSS.t241 sg13_lv_nmos ad=0.19p pd=1.38u as=0.19p ps=1.38u w=1u l=0.13u
X70 VSS.t54 iqmod_mfb_lpf_pex_half_0.iqmod_mfb_lpf_pex_ota_core_hybrid_bm_half_0.iqmod_mfb_lpf_pex_ota_core_inv_NF20$1_1.vin.t0 voutn.t1 VSS.t53 sg13_lv_nmos ad=0.19p pd=1.38u as=0.19p ps=1.38u w=1u l=1u
X71 iqmod_mfb_lpf_pex_half_1.iqmod_mfb_lpf_pex_ota_core_hybrid_bm_half_0.iqmod_mfb_lpf_pex_ota_core_inv_NF20$1_0.vout.t55 voutp.t42 VDD.t243 VDD.t0 sg13_lv_pmos ad=1.14p pd=6.38u as=1.14p ps=6.38u w=6u l=1u
X72 voutp.t14 iqmod_mfb_lpf_pex_half_1.iqmod_mfb_lpf_pex_ota_core_hybrid_bm_half_0.iqmod_mfb_lpf_pex_ota_core_tg$1_0.v_b.t37 VSS.t267 VSS.t224 sg13_lv_nmos ad=0.19p pd=1.38u as=0.19p ps=1.38u w=1u l=1u
X73 iqmod_mfb_lpf_pex_half_1.iqmod_mfb_lpf_pex_ota_core_hybrid_bm_half_0.iqmod_mfb_lpf_pex_ota_core_tg$1_0.v_b.t27 iqmod_mfb_lpf_pex_half_1.iqmod_mfb_lpf_pex_ota_core_hybrid_bm_half_0.iqmod_mfb_lpf_pex_ota_core_tg$1_0.di_tg_ctrl_n.t3 iqmod_mfb_lpf_pex_half_1.iqmod_mfb_lpf_pex_ota_core_hybrid_bm_half_0.iqmod_mfb_lpf_pex_ota_core_tg$1_0.v_a.t0 VDD.t0 sg13_lv_pmos ad=1.14p pd=6.38u as=2.04p ps=12.68u w=6u l=0.13u
X74 iqmod_mfb_lpf_pex_half_1.iqmod_mfb_lpf_pex_ota_core_hybrid_bm_half_0.iqmod_mfb_lpf_pex_ota_core_inv_NF20$1_0.vout.t13 voutn.t42 VSS.t277 VSS.t276 sg13_lv_nmos ad=0.19p pd=1.38u as=0.19p ps=1.38u w=1u l=1u
X75 voutp.t37 iqmod_mfb_lpf_pex_half_1.iqmod_mfb_lpf_pex_ota_core_hybrid_bm_half_0.iqmod_mfb_lpf_pex_ota_core_inv_NF20$1_1.vin.t0 VDD.t119 VDD.t0 sg13_lv_pmos ad=1.14p pd=6.38u as=1.14p ps=6.38u w=6u l=1u
X76 VDD.t24 iqmod_mfb_lpf_pex_half_0.iqmod_mfb_lpf_pex_ota_core_hybrid_bm_half_0.iqmod_mfb_lpf_pex_ota_core_inv_NF20$1_1.vin.t0 voutn.t19 VDD.t6 sg13_lv_pmos ad=1.14p pd=6.38u as=1.14p ps=6.38u w=6u l=1u
X77 iqmod_mfb_lpf_pex_half_1.iqmod_mfb_lpf_pex_ota_core_hybrid_bm_half_0.iqmod_mfb_lpf_pex_ota_core_inv_NF20$1_0.vout.t29 voutn.t43 VDD.t223 VDD.t6 sg13_lv_pmos ad=1.14p pd=6.38u as=1.14p ps=6.38u w=6u l=1u
X78 VSS.t271 iqmod_mfb_lpf_pex_half_1.iqmod_mfb_lpf_pex_ota_core_hybrid_bm_half_0.iqmod_mfb_lpf_pex_ota_core_tg$1_0.v_b.t37 voutp.t20 VSS.t228 sg13_lv_nmos ad=0.19p pd=1.38u as=0.19p ps=1.38u w=1u l=1u
X79 iqmod_mfb_lpf_pex_half_0.iqmod_mfb_lpf_pex_ota_core_hybrid_bm_half_0.iqmod_mfb_lpf_pex_ota_core_inv_NF20$1_1.vin.t0 iqmod_mfb_lpf_pex_half_0.iqmod_mfb_lpf_pex_ota_core_hybrid_bm_half_0.iqmod_mfb_lpf_pex_ota_core_tg$1_0.di_tg_ctrl_n.t7 iqmod_mfb_lpf_pex_half_0.vinp.t2 VDD.t6 sg13_lv_pmos ad=1.14p pd=6.38u as=1.14p ps=6.38u w=6u l=0.13u
X80 VDD.t244 voutp.t42 iqmod_mfb_lpf_pex_half_1.iqmod_mfb_lpf_pex_ota_core_hybrid_bm_half_0.iqmod_mfb_lpf_pex_ota_core_inv_NF20$1_0.vout.t52 VDD.t0 sg13_lv_pmos ad=1.14p pd=6.38u as=1.14p ps=6.38u w=6u l=1u
X81 VDD.t9 iqmod_mfb_lpf_pex_half_0.iqmod_mfb_lpf_pex_ota_core_hybrid_bm_half_0.iqmod_mfb_lpf_pex_ota_core_inv_NF20$1_1.vin.t0 iqmod_mfb_lpf_pex_half_1.iqmod_mfb_lpf_pex_ota_core_hybrid_bm_half_0.iqmod_mfb_lpf_pex_ota_core_tg$1_0.v_a.t1 VDD.t6 sg13_lv_pmos ad=1.14p pd=6.38u as=1.14p ps=6.38u w=6u l=1u
X82 iqmod_mfb_lpf_pex_half_1.iqmod_mfb_lpf_pex_ota_core_hybrid_bm_half_0.iqmod_mfb_lpf_pex_ota_core_tg$1_0.v_a.t1 iqmod_mfb_lpf_pex_half_0.iqmod_mfb_lpf_pex_ota_core_hybrid_bm_half_0.iqmod_mfb_lpf_pex_ota_core_tg$1_0.di_tg_ctrl_n.t5 iqmod_mfb_lpf_pex_half_1.iqmod_mfb_lpf_pex_ota_core_hybrid_bm_half_0.iqmod_mfb_lpf_pex_ota_core_tg$1_0.v_b.t1 VDD.t6 sg13_lv_pmos ad=1.14p pd=6.38u as=1.14p ps=6.38u w=6u l=0.13u
X83 VDD.t227 voutn.t43 iqmod_mfb_lpf_pex_half_1.iqmod_mfb_lpf_pex_ota_core_hybrid_bm_half_0.iqmod_mfb_lpf_pex_ota_core_inv_NF20$1_0.vout.t30 VDD.t6 sg13_lv_pmos ad=1.14p pd=6.38u as=1.14p ps=6.38u w=6u l=1u
X84 a_13404_n4303.t0 a_25290_n4603.t0 VSS.t20 rhigh l=59u w=0.5u
X85 a_636_n4603.t0 a_6122_n4303.t0 VSS.t194 rhigh l=27u w=0.5u
X86 iqmod_mfb_lpf_pex_half_1.iqmod_mfb_lpf_pex_ota_core_hybrid_bm_half_0.iqmod_mfb_lpf_pex_ota_core_tg$1_0.v_a.t0 di_filter_en.t2 iqmod_mfb_lpf_pex_half_1.iqmod_mfb_lpf_pex_ota_core_hybrid_bm_half_0.iqmod_mfb_lpf_pex_ota_core_tg$1_0.v_b.t23 VSS.t239 sg13_lv_nmos ad=0.34p pd=2.68u as=0.19p ps=1.38u w=1u l=0.13u
X87 iqmod_mfb_lpf_pex_half_1.iqmod_mfb_lpf_pex_ota_core_hybrid_bm_half_0.iqmod_mfb_lpf_pex_ota_core_inv_NF20$1_1.vin.t0 iqmod_mfb_lpf_pex_half_1.iqmod_mfb_lpf_pex_ota_core_hybrid_bm_half_0.iqmod_mfb_lpf_pex_ota_core_tg$1_0.di_tg_ctrl_n.t7 VDD.t4 VSS.t9 sg13_lv_nmos ad=0.19p pd=1.38u as=0.34p ps=2.68u w=1u l=0.13u
X88 a_6620_n4303.t0 iqmod_mfb_lpf_pex_half_1.iqmod_mfb_lpf_pex_R2_0.v_a.t1 VSS.t23 rhigh l=31u w=0.5u
X89 voutp.t32 iqmod_mfb_lpf_pex_half_1.iqmod_mfb_lpf_pex_ota_core_hybrid_bm_half_0.iqmod_mfb_lpf_pex_ota_core_inv_NF20$1_1.vin.t0 VDD.t273 VDD.t0 sg13_lv_pmos ad=1.14p pd=6.38u as=1.14p ps=6.38u w=6u l=1u
X90 VDD.t82 iqmod_mfb_lpf_pex_half_1.iqmod_mfb_lpf_pex_ota_core_hybrid_bm_half_0.iqmod_mfb_lpf_pex_ota_core_tg$1_0.v_b.t39 voutn.t37 VDD.t6 sg13_lv_pmos ad=1.14p pd=6.38u as=1.14p ps=6.38u w=6u l=1u
X91 iqmod_mfb_lpf_pex_half_1.iqmod_mfb_lpf_pex_ota_core_hybrid_bm_half_0.iqmod_mfb_lpf_pex_ota_core_tg$1_0.v_b.t22 di_filter_en.t2 iqmod_mfb_lpf_pex_half_1.iqmod_mfb_lpf_pex_ota_core_hybrid_bm_half_0.iqmod_mfb_lpf_pex_ota_core_tg$1_0.v_a.t0 VSS.t236 sg13_lv_nmos ad=0.19p pd=1.38u as=0.19p ps=1.38u w=1u l=0.13u
X92 iqmod_mfb_lpf_pex_half_1.iqmod_mfb_lpf_pex_R2_0.v_a.t4 a_37874_n4303.t0 VSS.t71 rhigh l=60u w=0.5u
X93 iqmod_mfb_lpf_pex_half_1.iqmod_mfb_lpf_pex_ota_core_hybrid_bm_half_0.iqmod_mfb_lpf_pex_ota_core_inv_NF20$1_1.vin.t0 iqmod_mfb_lpf_pex_half_1.iqmod_mfb_lpf_pex_ota_core_hybrid_bm_half_0.iqmod_mfb_lpf_pex_ota_core_spdt_switch$1_0.iqmod_mfb_lpf_pex_ota_core_spdt_switch_inv$2_0.vout.t4 iqmod_mfb_lpf_pex_half_1.vinp.t5 VSS.t5 sg13_lv_nmos ad=0.19p pd=1.38u as=0.19p ps=1.38u w=1u l=0.13u
X94 a_13404_3903.t0 iqmod_mfb_lpf_pex_half_1.C2_half.t3 VSS.t74 rhigh l=59u w=0.5u
X95 VSS.t45 iqmod_mfb_lpf_pex_half_0.iqmod_mfb_lpf_pex_ota_core_hybrid_bm_half_0.iqmod_mfb_lpf_pex_ota_core_inv_NF20$1_1.vin.t0 voutn.t0 VSS.t44 sg13_lv_nmos ad=0.19p pd=1.38u as=0.19p ps=1.38u w=1u l=1u
X96 iqmod_mfb_lpf_pex_half_1.iqmod_mfb_lpf_pex_ota_core_hybrid_bm_half_0.iqmod_mfb_lpf_pex_ota_core_tg$1_0.v_a.t0 iqmod_mfb_lpf_pex_half_1.iqmod_mfb_lpf_pex_ota_core_hybrid_bm_half_0.iqmod_mfb_lpf_pex_ota_core_inv_NF20$1_1.vin.t0 VDD.t257 VDD.t0 sg13_lv_pmos ad=1.14p pd=6.38u as=1.14p ps=6.38u w=6u l=1u
X97 VSS.t267 iqmod_mfb_lpf_pex_half_1.iqmod_mfb_lpf_pex_ota_core_hybrid_bm_half_0.iqmod_mfb_lpf_pex_ota_core_tg$1_0.v_b.t37 voutp.t13 VSS.t222 sg13_lv_nmos ad=0.19p pd=1.38u as=0.19p ps=1.38u w=1u l=1u
X98 voutn.t29 iqmod_mfb_lpf_pex_half_1.iqmod_mfb_lpf_pex_ota_core_hybrid_bm_half_0.iqmod_mfb_lpf_pex_ota_core_tg$1_0.v_b.t38 VSS.t211 VSS.t212 sg13_lv_nmos ad=0.19p pd=1.38u as=0.19p ps=1.38u w=1u l=1u
X99 iqmod_mfb_lpf_pex_half_1.iqmod_mfb_lpf_pex_ota_core_hybrid_bm_half_0.iqmod_mfb_lpf_pex_ota_core_tg$1_0.v_a.t1 iqmod_mfb_lpf_pex_half_0.iqmod_mfb_lpf_pex_ota_core_hybrid_bm_half_0.iqmod_mfb_lpf_pex_ota_core_inv_NF20$1_1.vin.t0 VSS.t37 VSS.t38 sg13_lv_nmos ad=0.19p pd=1.38u as=0.19p ps=1.38u w=1u l=1u
X100 iqmod_mfb_lpf_pex_half_1.C1_half.t7 iqmod_mfb_lpf_pex_half_1.iqmod_mfb_lpf_pex_R1_0.v_b.t6 cap_cmim l=8u w=8u
X101 VDD.t137 VDD.t136 VDD.t137 VDD.t0 sg13_lv_pmos ad=1.14p pd=6.38u as=0 ps=0 w=6u l=1u
X102 voutp.t20 iqmod_mfb_lpf_pex_half_1.iqmod_mfb_lpf_pex_ota_core_hybrid_bm_half_0.iqmod_mfb_lpf_pex_ota_core_tg$1_0.v_b.t37 VSS.t269 VSS.t227 sg13_lv_nmos ad=0.19p pd=1.38u as=0.19p ps=1.38u w=1u l=1u
X103 voutp.t34 iqmod_mfb_lpf_pex_half_1.iqmod_mfb_lpf_pex_ota_core_hybrid_bm_half_0.iqmod_mfb_lpf_pex_ota_core_inv_NF20$1_1.vin.t0 VSS.t376 VSS.t65 sg13_lv_nmos ad=0.19p pd=1.38u as=0.19p ps=1.38u w=1u l=1u
X104 iqmod_mfb_lpf_pex_half_1.iqmod_mfb_lpf_pex_ota_core_hybrid_bm_half_0.iqmod_mfb_lpf_pex_ota_core_inv_NF20$1_0.vout.t54 voutp.t42 VDD.t246 VDD.t0 sg13_lv_pmos ad=1.14p pd=6.38u as=1.14p ps=6.38u w=6u l=1u
X105 VDD.t43 iqmod_mfb_lpf_pex_half_1.iqmod_mfb_lpf_pex_ota_core_hybrid_bm_half_0.iqmod_mfb_lpf_pex_ota_core_inv_NF6$1_1.vout.t27 iqmod_mfb_lpf_pex_half_1.iqmod_mfb_lpf_pex_ota_core_hybrid_bm_half_0.iqmod_mfb_lpf_pex_ota_core_tg$1_0.v_b.t10 VDD.t6 sg13_lv_pmos ad=1.14p pd=6.38u as=1.14p ps=6.38u w=6u l=1u
X106 VSS.t155 VSS.t154 VSS.t155 VSS.t100 sg13_lv_nmos ad=0.19p pd=1.38u as=0 ps=0 w=1u l=1u
X107 VSS.t165 iqmod_mfb_lpf_pex_half_1.iqmod_mfb_lpf_pex_ota_core_hybrid_bm_half_0.iqmod_mfb_lpf_pex_ota_core_inv_NF20$1_1.vin.t0 voutp.t35 VSS.t69 sg13_lv_nmos ad=0.19p pd=1.38u as=0.19p ps=1.38u w=1u l=1u
X108 iqmod_mfb_lpf_pex_half_1.iqmod_mfb_lpf_pex_ota_core_hybrid_bm_half_0.iqmod_mfb_lpf_pex_ota_core_inv_NF6$1_1.vout.t16 iqmod_mfb_lpf_pex_half_1.iqmod_mfb_lpf_pex_ota_core_hybrid_bm_half_0.iqmod_mfb_lpf_pex_ota_core_inv_NF20$1_0.vout.t59 VDD.t155 VDD.t6 sg13_lv_pmos ad=1.14p pd=6.38u as=1.14p ps=6.38u w=6u l=1u
X109 VSS.t348 iqmod_mfb_lpf_pex_half_1.iqmod_mfb_lpf_pex_ota_core_hybrid_bm_half_0.iqmod_mfb_lpf_pex_ota_core_tg$1_0.v_a.t1 iqmod_mfb_lpf_pex_half_1.iqmod_mfb_lpf_pex_ota_core_hybrid_bm_half_0.iqmod_mfb_lpf_pex_ota_core_tg$1_0.v_b.t31 VSS.t190 sg13_lv_nmos ad=0.19p pd=1.38u as=0.19p ps=1.38u w=1u l=1u
X110 VDD.t295 iqmod_mfb_lpf_pex_half_1.iqmod_mfb_lpf_pex_ota_core_hybrid_bm_half_0.iqmod_mfb_lpf_pex_ota_core_spdt_switch$1_0.iqmod_mfb_lpf_pex_ota_core_spdt_switch_inv$2_0.vout.t2 iqmod_mfb_lpf_pex_half_1.iqmod_mfb_lpf_pex_ota_core_hybrid_bm_half_0.iqmod_mfb_lpf_pex_ota_core_inv_NF20$1_1.vin.t0 VDD.t0 sg13_lv_pmos ad=2.04p pd=12.68u as=1.14p ps=6.38u w=6u l=0.13u
X111 VDD.t45 VDD.t86 VDD.t45 VDD.t6 sg13_lv_pmos ad=1.14p pd=6.38u as=0 ps=0 w=6u l=1u
X112 VDD.t205 iqmod_mfb_lpf_pex_half_1.iqmod_mfb_lpf_pex_ota_core_hybrid_bm_half_0.iqmod_mfb_lpf_pex_ota_core_inv_NF6$1_1.vout.t24 iqmod_mfb_lpf_pex_half_1.iqmod_mfb_lpf_pex_ota_core_hybrid_bm_half_0.iqmod_mfb_lpf_pex_ota_core_tg$1_0.v_b.t12 VDD.t0 sg13_lv_pmos ad=1.14p pd=6.38u as=1.14p ps=6.38u w=6u l=1u
X113 voutp.t1 iqmod_mfb_lpf_pex_half_1.iqmod_mfb_lpf_pex_ota_core_hybrid_bm_half_0.iqmod_mfb_lpf_pex_ota_core_tg$1_0.v_b.t36 VDD.t165 VDD.t0 sg13_lv_pmos ad=1.14p pd=6.38u as=1.14p ps=6.38u w=6u l=1u
X114 iqmod_mfb_lpf_pex_half_1.iqmod_mfb_lpf_pex_ota_core_hybrid_bm_half_0.iqmod_mfb_lpf_pex_ota_core_inv_NF6$1_1.vout.t4 di_filter_en.t4 iqmod_mfb_lpf_pex_half_1.iqmod_mfb_lpf_pex_ota_core_hybrid_bm_half_0.iqmod_mfb_lpf_pex_ota_core_inv_NF20$1_0.vout.t9 VSS.t242 sg13_lv_nmos ad=0.19p pd=1.38u as=0.19p ps=1.38u w=1u l=0.13u
X115 voutp.t11 iqmod_mfb_lpf_pex_half_1.iqmod_mfb_lpf_pex_ota_core_hybrid_bm_half_0.iqmod_mfb_lpf_pex_ota_core_tg$1_0.v_b.t37 VSS.t167 VSS.t203 sg13_lv_nmos ad=0.19p pd=1.38u as=0.19p ps=1.38u w=1u l=1u
X116 iqmod_mfb_lpf_pex_half_1.iqmod_mfb_lpf_pex_ota_core_hybrid_bm_half_0.iqmod_mfb_lpf_pex_ota_core_inv_NF20$1_0.vout.t2 iqmod_mfb_lpf_pex_half_0.iqmod_mfb_lpf_pex_ota_core_hybrid_bm_half_0.iqmod_mfb_lpf_pex_ota_core_tg$1_0.di_tg_ctrl_n.t4 iqmod_mfb_lpf_pex_half_1.iqmod_mfb_lpf_pex_ota_core_hybrid_bm_half_0.iqmod_mfb_lpf_pex_ota_core_inv_NF6$1_1.vout.t1 VDD.t6 sg13_lv_pmos ad=1.14p pd=6.38u as=1.14p ps=6.38u w=6u l=0.13u
X117 VDD.t137 iqmod_mfb_lpf_pex_half_1.iqmod_mfb_lpf_pex_ota_core_hybrid_bm_half_0.iqmod_mfb_lpf_pex_ota_core_inv_NF20$1_0.vout.t56 iqmod_mfb_lpf_pex_half_1.iqmod_mfb_lpf_pex_ota_core_hybrid_bm_half_0.iqmod_mfb_lpf_pex_ota_core_inv_NF6$1_1.vout.t20 VDD.t0 sg13_lv_pmos ad=1.14p pd=6.38u as=1.14p ps=6.38u w=6u l=1u
X118 iqmod_mfb_lpf_pex_half_1.C1_half.t9 iqmod_mfb_lpf_pex_half_1.iqmod_mfb_lpf_pex_R1_0.v_b.t1 cap_cmim l=8u w=8u
X119 iqmod_mfb_lpf_pex_half_1.iqmod_mfb_lpf_pex_ota_core_hybrid_bm_half_0.iqmod_mfb_lpf_pex_ota_core_inv_NF20$1_0.vout.t5 di_filter_en.t1 iqmod_mfb_lpf_pex_half_1.iqmod_mfb_lpf_pex_ota_core_hybrid_bm_half_0.iqmod_mfb_lpf_pex_ota_core_inv_NF6$1_1.vout.t8 VSS.t245 sg13_lv_nmos ad=0.34p pd=2.68u as=0.19p ps=1.38u w=1u l=0.13u
X120 VSS.t191 iqmod_mfb_lpf_pex_half_1.iqmod_mfb_lpf_pex_ota_core_hybrid_bm_half_0.iqmod_mfb_lpf_pex_ota_core_tg$1_0.v_a.t0 iqmod_mfb_lpf_pex_half_1.iqmod_mfb_lpf_pex_ota_core_hybrid_bm_half_0.iqmod_mfb_lpf_pex_ota_core_tg$1_0.v_b.t16 VSS.t190 sg13_lv_nmos ad=0.19p pd=1.38u as=0.19p ps=1.38u w=1u l=1u
X121 VSS.t116 VSS.t113 VSS.t115 VSS.t114 sg13_lv_nmos ad=0.34p pd=2.68u as=0 ps=0 w=1u l=1u
X122 voutn.t36 iqmod_mfb_lpf_pex_half_1.iqmod_mfb_lpf_pex_ota_core_hybrid_bm_half_0.iqmod_mfb_lpf_pex_ota_core_tg$1_0.v_b.t39 VDD.t185 VDD.t6 sg13_lv_pmos ad=1.14p pd=6.38u as=1.14p ps=6.38u w=6u l=1u
X123 voutn.t31 iqmod_mfb_lpf_pex_half_1.iqmod_mfb_lpf_pex_ota_core_hybrid_bm_half_0.iqmod_mfb_lpf_pex_ota_core_tg$1_0.v_b.t39 VDD.t187 VDD.t6 sg13_lv_pmos ad=1.14p pd=6.38u as=1.14p ps=6.38u w=6u l=1u
X124 VDD.t281 iqmod_mfb_lpf_pex_half_1.iqmod_mfb_lpf_pex_ota_core_hybrid_bm_half_0.iqmod_mfb_lpf_pex_ota_core_inv_NF20$1_1.vin.t0 voutp.t22 VDD.t0 sg13_lv_pmos ad=1.14p pd=6.38u as=1.14p ps=6.38u w=6u l=1u
X125 VDD.t112 iqmod_mfb_lpf_pex_half_1.iqmod_mfb_lpf_pex_ota_core_hybrid_bm_half_0.iqmod_mfb_lpf_pex_ota_core_inv_NF20$1_1.vin.t0 iqmod_mfb_lpf_pex_half_1.iqmod_mfb_lpf_pex_ota_core_hybrid_bm_half_0.iqmod_mfb_lpf_pex_ota_core_tg$1_0.v_a.t0 VDD.t0 sg13_lv_pmos ad=1.14p pd=6.38u as=1.14p ps=6.38u w=6u l=1u
X126 iqmod_mfb_lpf_pex_half_0.iqmod_mfb_lpf_pex_ota_core_hybrid_bm_half_0.iqmod_mfb_lpf_pex_ota_core_inv_NF20$1_1.vin.t0 iqmod_mfb_lpf_pex_half_0.iqmod_mfb_lpf_pex_ota_core_hybrid_bm_half_0.iqmod_mfb_lpf_pex_ota_core_spdt_switch$1_0.iqmod_mfb_lpf_pex_ota_core_spdt_switch_inv$2_0.vout.t4 VDD.t146 VDD.t6 sg13_lv_pmos ad=1.14p pd=6.38u as=1.14p ps=6.38u w=6u l=0.13u
X127 VDD.t191 iqmod_mfb_lpf_pex_half_1.iqmod_mfb_lpf_pex_ota_core_hybrid_bm_half_0.iqmod_mfb_lpf_pex_ota_core_tg$1_0.v_b.t39 voutn.t32 VDD.t6 sg13_lv_pmos ad=1.14p pd=6.38u as=1.14p ps=6.38u w=6u l=1u
X128 VDD.t2 VDD.t106 VDD.t2 VDD.t0 sg13_lv_pmos ad=1.14p pd=6.38u as=0 ps=0 w=6u l=0.13u
X129 iqmod_mfb_lpf_pex_half_1.C1_half.t11 iqmod_mfb_lpf_pex_half_1.iqmod_mfb_lpf_pex_R1_0.v_b.t5 cap_cmim l=8u w=8u
X130 VDD.t100 VDD.t98 VDD.t99 VDD.t0 sg13_lv_pmos ad=2.04p pd=12.68u as=0 ps=0 w=6u l=0.13u
X131 VSS.t119 VSS.t117 VSS.t119 VSS.t118 sg13_lv_nmos ad=0.19p pd=1.38u as=0 ps=0 w=1u l=1u
X132 iqmod_mfb_lpf_pex_half_1.vinp.t8 a_25290_n4603.t1 VSS.t20 rhigh l=59u w=0.5u
X133 a_636_n4603.t1 iqmod_mfb_lpf_pex_half_1.iqmod_mfb_lpf_pex_R1_0.v_b.t2 VSS.t194 rhigh l=27u w=0.5u
X134 voutp.t33 iqmod_mfb_lpf_pex_half_1.iqmod_mfb_lpf_pex_ota_core_hybrid_bm_half_0.iqmod_mfb_lpf_pex_ota_core_inv_NF20$1_1.vin.t0 VDD.t275 VDD.t0 sg13_lv_pmos ad=1.14p pd=6.38u as=1.14p ps=6.38u w=6u l=1u
X135 iqmod_mfb_lpf_pex_half_1.iqmod_mfb_lpf_pex_ota_core_hybrid_bm_half_0.iqmod_mfb_lpf_pex_ota_core_inv_NF20$1_0.vout.t40 voutp.t43 VSS.t333 VSS.t274 sg13_lv_nmos ad=0.19p pd=1.38u as=0.19p ps=1.38u w=1u l=1u
X136 VSS.t180 VSS.t179 VSS.t180 VSS.t132 sg13_lv_nmos ad=0.19p pd=1.38u as=0 ps=0 w=1u l=1u
X137 VSS.t362 iqmod_mfb_lpf_pex_half_1.iqmod_mfb_lpf_pex_ota_core_hybrid_bm_half_0.iqmod_mfb_lpf_pex_ota_core_inv_NF20$1_1.vin.t0 voutp.t36 VSS.t44 sg13_lv_nmos ad=0.19p pd=1.38u as=0.19p ps=1.38u w=1u l=1u
X138 VSS.t64 iqmod_mfb_lpf_pex_half_0.iqmod_mfb_lpf_pex_ota_core_hybrid_bm_half_0.iqmod_mfb_lpf_pex_ota_core_inv_NF20$1_1.vin.t0 voutn.t9 VSS.t63 sg13_lv_nmos ad=0.19p pd=1.38u as=0.19p ps=1.38u w=1u l=1u