* PEX produced on Sat Mar 28 10:02:44 PM CET 2026 using /foss/tools/sak/sak-pex.sh with m=1 and s=1
* NGSPICE file created from iqmod_mfb_lpf_pex.ext - technology: ihp-sg13g2

.subckt iqmod_mfb_lpf_pex voutp vinp voutn vinn VDD VSS di_filter_en
X0 VSS iqmod_mfb_lpf_pex_half_0.iqmod_mfb_lpf_pex_ota_core_hybrid_bm_half_0.iqmod_mfb_lpf_pex_ota_core_inv_NF20$1_1.vin voutn VSS sg13_lv_nmos ad=0.19p pd=1.38u as=0.19p ps=1.38u w=1u l=1u
X1 VSS iqmod_mfb_lpf_pex_half_1.iqmod_mfb_lpf_pex_ota_core_hybrid_bm_half_0.iqmod_mfb_lpf_pex_ota_core_tg$1_0.v_b voutn VSS sg13_lv_nmos ad=0.19p pd=1.38u as=0.19p ps=1.38u w=1u l=1u
X2 iqmod_mfb_lpf_pex_half_1.iqmod_mfb_lpf_pex_ota_core_hybrid_bm_half_0.iqmod_mfb_lpf_pex_ota_core_tg$1_0.v_b iqmod_mfb_lpf_pex_half_1.iqmod_mfb_lpf_pex_ota_core_hybrid_bm_half_0.iqmod_mfb_lpf_pex_ota_core_tg$1_0.v_a VDD VDD sg13_lv_pmos ad=1.14p pd=6.38u as=1.14p ps=6.38u w=6u l=1u
X3 VSS VSS VSS VSS sg13_lv_nmos ad=0.34p pd=2.68u as=2.362n ps=3.33876m w=1u l=1u
X4 iqmod_mfb_lpf_pex_half_1.iqmod_mfb_lpf_pex_ota_core_hybrid_bm_half_0.iqmod_mfb_lpf_pex_ota_core_inv_NF20$1_0.vout voutp VSS VSS sg13_lv_nmos ad=0.19p pd=1.38u as=0.19p ps=1.38u w=1u l=1u
X5 VDD voutn iqmod_mfb_lpf_pex_half_1.iqmod_mfb_lpf_pex_ota_core_hybrid_bm_half_0.iqmod_mfb_lpf_pex_ota_core_inv_NF20$1_0.vout VDD sg13_lv_pmos ad=1.14p pd=6.38u as=1.14p ps=6.38u w=6u l=1u
X6 voutn iqmod_mfb_lpf_pex_half_0.iqmod_mfb_lpf_pex_ota_core_hybrid_bm_half_0.iqmod_mfb_lpf_pex_ota_core_inv_NF20$1_1.vin VDD VDD sg13_lv_pmos ad=1.14p pd=6.38u as=1.14p ps=6.38u w=6u l=1u
X7 iqmod_mfb_lpf_pex_half_1.iqmod_mfb_lpf_pex_ota_core_hybrid_bm_half_0.iqmod_mfb_lpf_pex_ota_core_tg$1_0.v_b iqmod_mfb_lpf_pex_half_1.iqmod_mfb_lpf_pex_ota_core_hybrid_bm_half_0.iqmod_mfb_lpf_pex_ota_core_tg$1_0.di_tg_ctrl_n iqmod_mfb_lpf_pex_half_1.iqmod_mfb_lpf_pex_ota_core_hybrid_bm_half_0.iqmod_mfb_lpf_pex_ota_core_tg$1_0.v_a VDD sg13_lv_pmos ad=1.14p pd=6.38u as=1.14p ps=6.38u w=6u l=0.13u
X8 VSS VSS VSS rhigh l=27u w=0.5u
X9 iqmod_mfb_lpf_pex_half_1.iqmod_mfb_lpf_pex_ota_core_hybrid_bm_half_0.iqmod_mfb_lpf_pex_ota_core_tg$1_0.v_a iqmod_mfb_lpf_pex_half_0.iqmod_mfb_lpf_pex_ota_core_hybrid_bm_half_0.iqmod_mfb_lpf_pex_ota_core_inv_NF20$1_1.vin VDD VDD sg13_lv_pmos ad=1.14p pd=6.38u as=1.14p ps=6.38u w=6u l=1u
X10 VSS iqmod_mfb_lpf_pex_half_1.iqmod_mfb_lpf_pex_ota_core_hybrid_bm_half_0.iqmod_mfb_lpf_pex_ota_core_tg$1_0.v_b voutp VSS sg13_lv_nmos ad=0.19p pd=1.38u as=0.19p ps=1.38u w=1u l=1u
X11 iqmod_mfb_lpf_pex_half_1.iqmod_mfb_lpf_pex_ota_core_hybrid_bm_half_0.iqmod_mfb_lpf_pex_ota_core_inv_NF6$1_1.vout iqmod_mfb_lpf_pex_half_1.iqmod_mfb_lpf_pex_ota_core_hybrid_bm_half_0.iqmod_mfb_lpf_pex_ota_core_inv_NF20$1_0.vout VSS VSS sg13_lv_nmos ad=0.19p pd=1.38u as=0.19p ps=1.38u w=1u l=1u
X12 VSS VSS VSS rhigh l=31u w=0.5u
X13 vinn iqmod_mfb_lpf_pex_half_1.iqmod_mfb_lpf_pex_ota_core_hybrid_bm_half_0.iqmod_mfb_lpf_pex_ota_core_tg$1_0.di_tg_ctrl_n iqmod_mfb_lpf_pex_half_1.iqmod_mfb_lpf_pex_ota_core_hybrid_bm_half_0.iqmod_mfb_lpf_pex_ota_core_inv_NF20$1_1.vin VDD sg13_lv_pmos ad=1.14p pd=6.38u as=1.14p ps=6.38u w=6u l=0.13u
X14 VSS VSS VSS rhigh l=60u w=0.5u
X15 voutp iqmod_mfb_lpf_pex_half_1.iqmod_mfb_lpf_pex_ota_core_hybrid_bm_half_0.iqmod_mfb_lpf_pex_ota_core_tg$1_0.v_b VSS VSS sg13_lv_nmos ad=0.19p pd=1.38u as=0.19p ps=1.38u w=1u l=1u
X16 VDD iqmod_mfb_lpf_pex_half_1.iqmod_mfb_lpf_pex_ota_core_hybrid_bm_half_0.iqmod_mfb_lpf_pex_ota_core_tg$1_0.v_b voutp VDD sg13_lv_pmos ad=1.14p pd=6.38u as=1.14p ps=6.38u w=6u l=1u
X17 iqmod_mfb_lpf_pex_half_1.C2_half iqmod_mfb_lpf_pex_half_1.iqmod_mfb_lpf_pex_R2_0.v_a cap_cmim l=8u w=8u
X18 iqmod_mfb_lpf_pex_half_1.iqmod_mfb_lpf_pex_ota_core_hybrid_bm_half_0.iqmod_mfb_lpf_pex_ota_core_inv_NF20$1_0.vout voutp VDD VDD sg13_lv_pmos ad=1.14p pd=6.38u as=1.14p ps=6.38u w=6u l=1u
X19 VDD VDD VDD VDD sg13_lv_pmos ad=2.04p pd=12.68u as=1.62466n ps=3.23532m w=6u l=1u
X20 VSS iqmod_mfb_lpf_pex_half_0.iqmod_mfb_lpf_pex_ota_core_hybrid_bm_half_0.iqmod_mfb_lpf_pex_ota_core_tg$1_0.di_tg_ctrl_n iqmod_mfb_lpf_pex_half_0.iqmod_mfb_lpf_pex_ota_core_hybrid_bm_half_0.iqmod_mfb_lpf_pex_ota_core_spdt_switch$1_0.iqmod_mfb_lpf_pex_ota_core_spdt_switch_inv$2_0.vout VSS sg13_lv_nmos ad=0.19p pd=1.38u as=0.19p ps=1.38u w=1u l=0.13u
X21 VSS VSS VSS VSS sg13_lv_nmos ad=0.34p pd=2.68u as=0 ps=0 w=1u l=1u
X22 voutn iqmod_mfb_lpf_pex_half_1.iqmod_mfb_lpf_pex_ota_core_hybrid_bm_half_0.iqmod_mfb_lpf_pex_ota_core_tg$1_0.v_b VSS VSS sg13_lv_nmos ad=0.19p pd=1.38u as=0.19p ps=1.38u w=1u l=1u
X23 iqmod_mfb_lpf_pex_half_1.iqmod_mfb_lpf_pex_ota_core_hybrid_bm_half_0.iqmod_mfb_lpf_pex_ota_core_inv_NF6$1_1.vout iqmod_mfb_lpf_pex_half_1.iqmod_mfb_lpf_pex_ota_core_hybrid_bm_half_0.iqmod_mfb_lpf_pex_ota_core_tg$1_0.di_tg_ctrl_n iqmod_mfb_lpf_pex_half_1.iqmod_mfb_lpf_pex_ota_core_hybrid_bm_half_0.iqmod_mfb_lpf_pex_ota_core_inv_NF20$1_0.vout VDD sg13_lv_pmos ad=1.14p pd=6.38u as=1.14p ps=6.38u w=6u l=0.13u
X24 iqmod_mfb_lpf_pex_half_1.iqmod_mfb_lpf_pex_ota_core_hybrid_bm_half_0.iqmod_mfb_lpf_pex_ota_core_inv_NF6$1_1.vout iqmod_mfb_lpf_pex_half_1.iqmod_mfb_lpf_pex_ota_core_hybrid_bm_half_0.iqmod_mfb_lpf_pex_ota_core_inv_NF20$1_0.vout VDD VDD sg13_lv_pmos ad=1.14p pd=6.38u as=1.14p ps=6.38u w=6u l=1u
X25 iqmod_mfb_lpf_pex_half_1.iqmod_mfb_lpf_pex_ota_core_hybrid_bm_half_0.iqmod_mfb_lpf_pex_ota_core_inv_NF6$1_1.vout di_filter_en iqmod_mfb_lpf_pex_half_1.iqmod_mfb_lpf_pex_ota_core_hybrid_bm_half_0.iqmod_mfb_lpf_pex_ota_core_inv_NF20$1_0.vout VSS sg13_lv_nmos ad=0.19p pd=1.38u as=0.19p ps=1.38u w=1u l=0.13u
X26 iqmod_mfb_lpf_pex_half_1.iqmod_mfb_lpf_pex_ota_core_hybrid_bm_half_0.iqmod_mfb_lpf_pex_ota_core_tg$1_0.v_b iqmod_mfb_lpf_pex_half_1.iqmod_mfb_lpf_pex_ota_core_hybrid_bm_half_0.iqmod_mfb_lpf_pex_ota_core_inv_NF6$1_1.vout VSS VSS sg13_lv_nmos ad=0.19p pd=1.38u as=0.19p ps=1.38u w=1u l=1u
X27 VDD iqmod_mfb_lpf_pex_half_0.iqmod_mfb_lpf_pex_ota_core_hybrid_bm_half_0.iqmod_mfb_lpf_pex_ota_core_tg$1_0.di_tg_ctrl_n iqmod_mfb_lpf_pex_half_0.iqmod_mfb_lpf_pex_ota_core_hybrid_bm_half_0.iqmod_mfb_lpf_pex_ota_core_spdt_switch$1_0.iqmod_mfb_lpf_pex_ota_core_spdt_switch_inv$2_0.vout VDD sg13_lv_pmos ad=1.14p pd=6.38u as=1.14p ps=6.38u w=6u l=0.13u
X28 vinp iqmod_mfb_lpf_pex_half_0.iqmod_mfb_lpf_pex_ota_core_hybrid_bm_half_0.iqmod_mfb_lpf_pex_ota_core_tg$1_0.di_tg_ctrl_n iqmod_mfb_lpf_pex_half_0.iqmod_mfb_lpf_pex_ota_core_hybrid_bm_half_0.iqmod_mfb_lpf_pex_ota_core_inv_NF20$1_1.vin VDD sg13_lv_pmos ad=1.14p pd=6.38u as=1.14p ps=6.38u w=6u l=0.13u
X29 VDD voutn iqmod_mfb_lpf_pex_half_1.iqmod_mfb_lpf_pex_ota_core_hybrid_bm_half_0.iqmod_mfb_lpf_pex_ota_core_inv_NF20$1_0.vout VDD sg13_lv_pmos ad=1.14p pd=6.38u as=1.14p ps=6.38u w=6u l=1u
X30 voutn iqmod_mfb_lpf_pex_half_0.iqmod_mfb_lpf_pex_ota_core_hybrid_bm_half_0.iqmod_mfb_lpf_pex_ota_core_inv_NF20$1_1.vin VSS VSS sg13_lv_nmos ad=0.19p pd=1.38u as=0.19p ps=1.38u w=1u l=1u
X31 iqmod_mfb_lpf_pex_half_1.iqmod_mfb_lpf_pex_R1_0.v_b iqmod_mfb_lpf_pex_half_1.C1_half cap_cmim l=8u w=8u
X32 iqmod_mfb_lpf_pex_half_1.iqmod_mfb_lpf_pex_ota_core_hybrid_bm_half_0.iqmod_mfb_lpf_pex_ota_core_inv_NF20$1_0.vout voutn VDD VDD sg13_lv_pmos ad=1.14p pd=6.38u as=1.14p ps=6.38u w=6u l=1u
X33 voutp vinn cap_cmim l=8u w=8u
X34 iqmod_mfb_lpf_pex_half_1.iqmod_mfb_lpf_pex_ota_core_hybrid_bm_half_0.iqmod_mfb_lpf_pex_ota_core_tg$1_0.v_b iqmod_mfb_lpf_pex_half_1.iqmod_mfb_lpf_pex_ota_core_hybrid_bm_half_0.iqmod_mfb_lpf_pex_ota_core_inv_NF6$1_1.vout VDD VDD sg13_lv_pmos ad=1.14p pd=6.38u as=1.14p ps=6.38u w=6u l=1u
X35 a_13404_n4303# iqmod_mfb_lpf_pex_half_1.iqmod_mfb_lpf_pex_R2_0.v_a VSS rhigh l=59u w=0.5u
X36 vinn a_6122_n4303# VSS rhigh l=27u w=0.5u
X37 VSS voutn iqmod_mfb_lpf_pex_half_1.iqmod_mfb_lpf_pex_ota_core_hybrid_bm_half_0.iqmod_mfb_lpf_pex_ota_core_inv_NF20$1_0.vout VSS sg13_lv_nmos ad=0.19p pd=1.38u as=0.19p ps=1.38u w=1u l=1u
X38 iqmod_mfb_lpf_pex_half_1.iqmod_mfb_lpf_pex_R1_0.v_b iqmod_mfb_lpf_pex_half_1.C1_half cap_cmim l=8u w=8u
X39 VDD VDD VDD VDD sg13_lv_pmos ad=1.14p pd=6.38u as=0 ps=0 w=6u l=1u
X40 VSS VSS VSS VSS sg13_lv_nmos ad=0.34p pd=2.68u as=0 ps=0 w=1u l=0.13u
X41 VSS VSS VSS rhigh l=59u w=0.5u
X42 iqmod_mfb_lpf_pex_half_1.C2_half iqmod_mfb_lpf_pex_half_1.iqmod_mfb_lpf_pex_R2_0.v_a cap_cmim l=8u w=8u
X43 VSS iqmod_mfb_lpf_pex_half_1.iqmod_mfb_lpf_pex_ota_core_hybrid_bm_half_0.iqmod_mfb_lpf_pex_ota_core_tg$1_0.v_b voutp VSS sg13_lv_nmos ad=0.19p pd=1.38u as=0.19p ps=1.38u w=1u l=1u
X44 VSS iqmod_mfb_lpf_pex_half_1.iqmod_mfb_lpf_pex_ota_core_hybrid_bm_half_0.iqmod_mfb_lpf_pex_ota_core_inv_NF20$1_0.vout iqmod_mfb_lpf_pex_half_1.iqmod_mfb_lpf_pex_ota_core_hybrid_bm_half_0.iqmod_mfb_lpf_pex_ota_core_inv_NF6$1_1.vout VSS sg13_lv_nmos ad=0.19p pd=1.38u as=0.19p ps=1.38u w=1u l=1u
X45 VSS iqmod_mfb_lpf_pex_half_1.iqmod_mfb_lpf_pex_ota_core_hybrid_bm_half_0.iqmod_mfb_lpf_pex_ota_core_tg$1_0.v_b voutp VSS sg13_lv_nmos ad=0.19p pd=1.38u as=0.19p ps=1.38u w=1u l=1u
X46 iqmod_mfb_lpf_pex_half_1.iqmod_mfb_lpf_pex_ota_core_hybrid_bm_half_0.iqmod_mfb_lpf_pex_ota_core_inv_NF6$1_1.vout iqmod_mfb_lpf_pex_half_1.iqmod_mfb_lpf_pex_ota_core_hybrid_bm_half_0.iqmod_mfb_lpf_pex_ota_core_inv_NF20$1_0.vout VDD VDD sg13_lv_pmos ad=1.14p pd=6.38u as=1.14p ps=6.38u w=6u l=1u
X47 VSS voutp iqmod_mfb_lpf_pex_half_1.iqmod_mfb_lpf_pex_ota_core_hybrid_bm_half_0.iqmod_mfb_lpf_pex_ota_core_inv_NF20$1_0.vout VSS sg13_lv_nmos ad=0.19p pd=1.38u as=0.19p ps=1.38u w=1u l=1u
X48 VDD iqmod_mfb_lpf_pex_half_1.iqmod_mfb_lpf_pex_ota_core_hybrid_bm_half_0.iqmod_mfb_lpf_pex_ota_core_tg$1_0.v_b voutn VDD sg13_lv_pmos ad=1.14p pd=6.38u as=1.14p ps=6.38u w=6u l=1u
X49 voutn iqmod_mfb_lpf_pex_half_1.iqmod_mfb_lpf_pex_ota_core_hybrid_bm_half_0.iqmod_mfb_lpf_pex_ota_core_tg$1_0.v_b VSS VSS sg13_lv_nmos ad=0.19p pd=1.38u as=0.19p ps=1.38u w=1u l=1u
X50 VSS VSS VSS VSS sg13_lv_nmos ad=0.19p pd=1.38u as=0 ps=0 w=1u l=0.13u
X51 iqmod_mfb_lpf_pex_half_1.iqmod_mfb_lpf_pex_ota_core_hybrid_bm_half_0.iqmod_mfb_lpf_pex_ota_core_inv_NF20$1_0.vout voutp VSS VSS sg13_lv_nmos ad=0.19p pd=1.38u as=0.19p ps=1.38u w=1u l=1u
X52 VSS iqmod_mfb_lpf_pex_half_1.iqmod_mfb_lpf_pex_ota_core_hybrid_bm_half_0.iqmod_mfb_lpf_pex_ota_core_inv_NF6$1_1.vout iqmod_mfb_lpf_pex_half_1.iqmod_mfb_lpf_pex_ota_core_hybrid_bm_half_0.iqmod_mfb_lpf_pex_ota_core_tg$1_0.v_b VSS sg13_lv_nmos ad=0.19p pd=1.38u as=0.19p ps=1.38u w=1u l=1u
X53 VSS VSS VSS VSS sg13_lv_nmos ad=0.34p pd=2.68u as=0 ps=0 w=1u l=1u
X54 iqmod_mfb_lpf_pex_half_1.iqmod_mfb_lpf_pex_ota_core_hybrid_bm_half_0.iqmod_mfb_lpf_pex_ota_core_inv_NF20$1_0.vout di_filter_en iqmod_mfb_lpf_pex_half_1.iqmod_mfb_lpf_pex_ota_core_hybrid_bm_half_0.iqmod_mfb_lpf_pex_ota_core_inv_NF6$1_1.vout VSS sg13_lv_nmos ad=0.34p pd=2.68u as=0.19p ps=1.38u w=1u l=0.13u
X55 voutn iqmod_mfb_lpf_pex_half_1.iqmod_mfb_lpf_pex_ota_core_hybrid_bm_half_0.iqmod_mfb_lpf_pex_ota_core_tg$1_0.v_b VDD VDD sg13_lv_pmos ad=1.14p pd=6.38u as=1.14p ps=6.38u w=6u l=1u
X56 iqmod_mfb_lpf_pex_half_1.C2_half iqmod_mfb_lpf_pex_half_1.iqmod_mfb_lpf_pex_R2_0.v_a cap_cmim l=8u w=8u
X57 iqmod_mfb_lpf_pex_half_1.iqmod_mfb_lpf_pex_ota_core_hybrid_bm_half_0.iqmod_mfb_lpf_pex_ota_core_inv_NF6$1_1.vout di_filter_en iqmod_mfb_lpf_pex_half_1.iqmod_mfb_lpf_pex_ota_core_hybrid_bm_half_0.iqmod_mfb_lpf_pex_ota_core_inv_NF20$1_0.vout VSS sg13_lv_nmos ad=0.19p pd=1.38u as=0.34p ps=2.68u w=1u l=0.13u
X58 VSS voutp iqmod_mfb_lpf_pex_half_1.iqmod_mfb_lpf_pex_ota_core_hybrid_bm_half_0.iqmod_mfb_lpf_pex_ota_core_inv_NF20$1_0.vout VSS sg13_lv_nmos ad=0.19p pd=1.38u as=0.19p ps=1.38u w=1u l=1u
X59 voutp iqmod_mfb_lpf_pex_half_1.iqmod_mfb_lpf_pex_ota_core_hybrid_bm_half_0.iqmod_mfb_lpf_pex_ota_core_inv_NF20$1_1.vin VSS VSS sg13_lv_nmos ad=0.19p pd=1.38u as=0.19p ps=1.38u w=1u l=1u
X60 voutp iqmod_mfb_lpf_pex_half_1.iqmod_mfb_lpf_pex_ota_core_hybrid_bm_half_0.iqmod_mfb_lpf_pex_ota_core_tg$1_0.v_b VDD VDD sg13_lv_pmos ad=1.14p pd=6.38u as=1.14p ps=6.38u w=6u l=1u
X61 iqmod_mfb_lpf_pex_half_1.iqmod_mfb_lpf_pex_ota_core_hybrid_bm_half_0.iqmod_mfb_lpf_pex_ota_core_inv_NF20$1_0.vout voutn VDD VDD sg13_lv_pmos ad=1.14p pd=6.38u as=1.14p ps=6.38u w=6u l=1u
X62 VDD iqmod_mfb_lpf_pex_half_1.iqmod_mfb_lpf_pex_ota_core_hybrid_bm_half_0.iqmod_mfb_lpf_pex_ota_core_inv_NF20$1_0.vout iqmod_mfb_lpf_pex_half_1.iqmod_mfb_lpf_pex_ota_core_hybrid_bm_half_0.iqmod_mfb_lpf_pex_ota_core_inv_NF6$1_1.vout VDD sg13_lv_pmos ad=1.14p pd=6.38u as=1.14p ps=6.38u w=6u l=1u
X63 iqmod_mfb_lpf_pex_half_1.iqmod_mfb_lpf_pex_ota_core_hybrid_bm_half_0.iqmod_mfb_lpf_pex_ota_core_inv_NF6$1_1.vout di_filter_en iqmod_mfb_lpf_pex_half_1.iqmod_mfb_lpf_pex_ota_core_hybrid_bm_half_0.iqmod_mfb_lpf_pex_ota_core_inv_NF20$1_0.vout VSS sg13_lv_nmos ad=0.19p pd=1.38u as=0.19p ps=1.38u w=1u l=0.13u
X64 VDD iqmod_mfb_lpf_pex_half_1.iqmod_mfb_lpf_pex_ota_core_hybrid_bm_half_0.iqmod_mfb_lpf_pex_ota_core_inv_NF20$1_1.vin voutp VDD sg13_lv_pmos ad=1.14p pd=6.38u as=1.14p ps=6.38u w=6u l=1u
X65 voutn iqmod_mfb_lpf_pex_half_0.iqmod_mfb_lpf_pex_ota_core_hybrid_bm_half_0.iqmod_mfb_lpf_pex_ota_core_inv_NF20$1_1.vin VSS VSS sg13_lv_nmos ad=0.19p pd=1.38u as=0.19p ps=1.38u w=1u l=1u
X66 iqmod_mfb_lpf_pex_half_1.iqmod_mfb_lpf_pex_ota_core_hybrid_bm_half_0.iqmod_mfb_lpf_pex_ota_core_inv_NF20$1_0.vout voutp VSS VSS sg13_lv_nmos ad=0.19p pd=1.38u as=0.19p ps=1.38u w=1u l=1u
X67 VSS voutn iqmod_mfb_lpf_pex_half_1.iqmod_mfb_lpf_pex_ota_core_hybrid_bm_half_0.iqmod_mfb_lpf_pex_ota_core_inv_NF20$1_0.vout VSS sg13_lv_nmos ad=0.19p pd=1.38u as=0.19p ps=1.38u w=1u l=1u
X68 VDD VDD VDD VDD sg13_lv_pmos ad=2.04p pd=12.68u as=0 ps=0 w=6u l=1u
X69 iqmod_mfb_lpf_pex_half_1.iqmod_mfb_lpf_pex_ota_core_hybrid_bm_half_0.iqmod_mfb_lpf_pex_ota_core_inv_NF20$1_0.vout di_filter_en iqmod_mfb_lpf_pex_half_1.iqmod_mfb_lpf_pex_ota_core_hybrid_bm_half_0.iqmod_mfb_lpf_pex_ota_core_inv_NF6$1_1.vout VSS sg13_lv_nmos ad=0.19p pd=1.38u as=0.19p ps=1.38u w=1u l=0.13u
X70 VSS iqmod_mfb_lpf_pex_half_0.iqmod_mfb_lpf_pex_ota_core_hybrid_bm_half_0.iqmod_mfb_lpf_pex_ota_core_inv_NF20$1_1.vin voutn VSS sg13_lv_nmos ad=0.19p pd=1.38u as=0.19p ps=1.38u w=1u l=1u
X71 iqmod_mfb_lpf_pex_half_1.iqmod_mfb_lpf_pex_ota_core_hybrid_bm_half_0.iqmod_mfb_lpf_pex_ota_core_inv_NF20$1_0.vout voutp VDD VDD sg13_lv_pmos ad=1.14p pd=6.38u as=1.14p ps=6.38u w=6u l=1u
X72 voutp iqmod_mfb_lpf_pex_half_1.iqmod_mfb_lpf_pex_ota_core_hybrid_bm_half_0.iqmod_mfb_lpf_pex_ota_core_tg$1_0.v_b VSS VSS sg13_lv_nmos ad=0.19p pd=1.38u as=0.19p ps=1.38u w=1u l=1u
X73 iqmod_mfb_lpf_pex_half_1.iqmod_mfb_lpf_pex_ota_core_hybrid_bm_half_0.iqmod_mfb_lpf_pex_ota_core_tg$1_0.v_b iqmod_mfb_lpf_pex_half_1.iqmod_mfb_lpf_pex_ota_core_hybrid_bm_half_0.iqmod_mfb_lpf_pex_ota_core_tg$1_0.di_tg_ctrl_n iqmod_mfb_lpf_pex_half_1.iqmod_mfb_lpf_pex_ota_core_hybrid_bm_half_0.iqmod_mfb_lpf_pex_ota_core_tg$1_0.v_a VDD sg13_lv_pmos ad=1.14p pd=6.38u as=2.04p ps=12.68u w=6u l=0.13u
X74 iqmod_mfb_lpf_pex_half_1.iqmod_mfb_lpf_pex_ota_core_hybrid_bm_half_0.iqmod_mfb_lpf_pex_ota_core_inv_NF20$1_0.vout voutn VSS VSS sg13_lv_nmos ad=0.19p pd=1.38u as=0.19p ps=1.38u w=1u l=1u
X75 voutp iqmod_mfb_lpf_pex_half_1.iqmod_mfb_lpf_pex_ota_core_hybrid_bm_half_0.iqmod_mfb_lpf_pex_ota_core_inv_NF20$1_1.vin VDD VDD sg13_lv_pmos ad=1.14p pd=6.38u as=1.14p ps=6.38u w=6u l=1u
X76 VDD iqmod_mfb_lpf_pex_half_0.iqmod_mfb_lpf_pex_ota_core_hybrid_bm_half_0.iqmod_mfb_lpf_pex_ota_core_inv_NF20$1_1.vin voutn VDD sg13_lv_pmos ad=1.14p pd=6.38u as=1.14p ps=6.38u w=6u l=1u
X77 iqmod_mfb_lpf_pex_half_1.iqmod_mfb_lpf_pex_ota_core_hybrid_bm_half_0.iqmod_mfb_lpf_pex_ota_core_inv_NF20$1_0.vout voutn VDD VDD sg13_lv_pmos ad=1.14p pd=6.38u as=1.14p ps=6.38u w=6u l=1u
X78 VSS iqmod_mfb_lpf_pex_half_1.iqmod_mfb_lpf_pex_ota_core_hybrid_bm_half_0.iqmod_mfb_lpf_pex_ota_core_tg$1_0.v_b voutp VSS sg13_lv_nmos ad=0.19p pd=1.38u as=0.19p ps=1.38u w=1u l=1u
X79 iqmod_mfb_lpf_pex_half_0.iqmod_mfb_lpf_pex_ota_core_hybrid_bm_half_0.iqmod_mfb_lpf_pex_ota_core_inv_NF20$1_1.vin iqmod_mfb_lpf_pex_half_0.iqmod_mfb_lpf_pex_ota_core_hybrid_bm_half_0.iqmod_mfb_lpf_pex_ota_core_tg$1_0.di_tg_ctrl_n vinp VDD sg13_lv_pmos ad=1.14p pd=6.38u as=1.14p ps=6.38u w=6u l=0.13u
X80 VDD voutp iqmod_mfb_lpf_pex_half_1.iqmod_mfb_lpf_pex_ota_core_hybrid_bm_half_0.iqmod_mfb_lpf_pex_ota_core_inv_NF20$1_0.vout VDD sg13_lv_pmos ad=1.14p pd=6.38u as=1.14p ps=6.38u w=6u l=1u
X81 VDD iqmod_mfb_lpf_pex_half_0.iqmod_mfb_lpf_pex_ota_core_hybrid_bm_half_0.iqmod_mfb_lpf_pex_ota_core_inv_NF20$1_1.vin iqmod_mfb_lpf_pex_half_1.iqmod_mfb_lpf_pex_ota_core_hybrid_bm_half_0.iqmod_mfb_lpf_pex_ota_core_tg$1_0.v_a VDD sg13_lv_pmos ad=1.14p pd=6.38u as=1.14p ps=6.38u w=6u l=1u
X82 iqmod_mfb_lpf_pex_half_1.iqmod_mfb_lpf_pex_ota_core_hybrid_bm_half_0.iqmod_mfb_lpf_pex_ota_core_tg$1_0.v_a iqmod_mfb_lpf_pex_half_0.iqmod_mfb_lpf_pex_ota_core_hybrid_bm_half_0.iqmod_mfb_lpf_pex_ota_core_tg$1_0.di_tg_ctrl_n iqmod_mfb_lpf_pex_half_1.iqmod_mfb_lpf_pex_ota_core_hybrid_bm_half_0.iqmod_mfb_lpf_pex_ota_core_tg$1_0.v_b VDD sg13_lv_pmos ad=1.14p pd=6.38u as=1.14p ps=6.38u w=6u l=0.13u
X83 VDD voutn iqmod_mfb_lpf_pex_half_1.iqmod_mfb_lpf_pex_ota_core_hybrid_bm_half_0.iqmod_mfb_lpf_pex_ota_core_inv_NF20$1_0.vout VDD sg13_lv_pmos ad=1.14p pd=6.38u as=1.14p ps=6.38u w=6u l=1u
X84 a_13404_n4303# a_25290_n4603# VSS rhigh l=59u w=0.5u
X85 a_636_n4603# a_6122_n4303# VSS rhigh l=27u w=0.5u
X86 iqmod_mfb_lpf_pex_half_1.iqmod_mfb_lpf_pex_ota_core_hybrid_bm_half_0.iqmod_mfb_lpf_pex_ota_core_tg$1_0.v_a di_filter_en iqmod_mfb_lpf_pex_half_1.iqmod_mfb_lpf_pex_ota_core_hybrid_bm_half_0.iqmod_mfb_lpf_pex_ota_core_tg$1_0.v_b VSS sg13_lv_nmos ad=0.34p pd=2.68u as=0.19p ps=1.38u w=1u l=0.13u
X87 iqmod_mfb_lpf_pex_half_1.iqmod_mfb_lpf_pex_ota_core_hybrid_bm_half_0.iqmod_mfb_lpf_pex_ota_core_inv_NF20$1_1.vin iqmod_mfb_lpf_pex_half_1.iqmod_mfb_lpf_pex_ota_core_hybrid_bm_half_0.iqmod_mfb_lpf_pex_ota_core_tg$1_0.di_tg_ctrl_n VDD VSS sg13_lv_nmos ad=0.19p pd=1.38u as=0.34p ps=2.68u w=1u l=0.13u
X88 a_6620_n4303# iqmod_mfb_lpf_pex_half_1.iqmod_mfb_lpf_pex_R2_0.v_a VSS rhigh l=31u w=0.5u
X89 voutp iqmod_mfb_lpf_pex_half_1.iqmod_mfb_lpf_pex_ota_core_hybrid_bm_half_0.iqmod_mfb_lpf_pex_ota_core_inv_NF20$1_1.vin VDD VDD sg13_lv_pmos ad=1.14p pd=6.38u as=1.14p ps=6.38u w=6u l=1u
X90 VDD iqmod_mfb_lpf_pex_half_1.iqmod_mfb_lpf_pex_ota_core_hybrid_bm_half_0.iqmod_mfb_lpf_pex_ota_core_tg$1_0.v_b voutn VDD sg13_lv_pmos ad=1.14p pd=6.38u as=1.14p ps=6.38u w=6u l=1u
X91 iqmod_mfb_lpf_pex_half_1.iqmod_mfb_lpf_pex_ota_core_hybrid_bm_half_0.iqmod_mfb_lpf_pex_ota_core_tg$1_0.v_b di_filter_en iqmod_mfb_lpf_pex_half_1.iqmod_mfb_lpf_pex_ota_core_hybrid_bm_half_0.iqmod_mfb_lpf_pex_ota_core_tg$1_0.v_a VSS sg13_lv_nmos ad=0.19p pd=1.38u as=0.19p ps=1.38u w=1u l=0.13u
X92 iqmod_mfb_lpf_pex_half_1.iqmod_mfb_lpf_pex_R2_0.v_a a_37874_n4303# VSS rhigh l=60u w=0.5u
X93 iqmod_mfb_lpf_pex_half_1.iqmod_mfb_lpf_pex_ota_core_hybrid_bm_half_0.iqmod_mfb_lpf_pex_ota_core_inv_NF20$1_1.vin iqmod_mfb_lpf_pex_half_1.iqmod_mfb_lpf_pex_ota_core_hybrid_bm_half_0.iqmod_mfb_lpf_pex_ota_core_spdt_switch$1_0.iqmod_mfb_lpf_pex_ota_core_spdt_switch_inv$2_0.vout vinn VSS sg13_lv_nmos ad=0.19p pd=1.38u as=0.19p ps=1.38u w=1u l=0.13u
X94 a_13404_3903# iqmod_mfb_lpf_pex_half_1.C2_half VSS rhigh l=59u w=0.5u
X95 VSS iqmod_mfb_lpf_pex_half_0.iqmod_mfb_lpf_pex_ota_core_hybrid_bm_half_0.iqmod_mfb_lpf_pex_ota_core_inv_NF20$1_1.vin voutn VSS sg13_lv_nmos ad=0.19p pd=1.38u as=0.19p ps=1.38u w=1u l=1u
X96 iqmod_mfb_lpf_pex_half_1.iqmod_mfb_lpf_pex_ota_core_hybrid_bm_half_0.iqmod_mfb_lpf_pex_ota_core_tg$1_0.v_a iqmod_mfb_lpf_pex_half_1.iqmod_mfb_lpf_pex_ota_core_hybrid_bm_half_0.iqmod_mfb_lpf_pex_ota_core_inv_NF20$1_1.vin VDD VDD sg13_lv_pmos ad=1.14p pd=6.38u as=1.14p ps=6.38u w=6u l=1u
X97 VSS iqmod_mfb_lpf_pex_half_1.iqmod_mfb_lpf_pex_ota_core_hybrid_bm_half_0.iqmod_mfb_lpf_pex_ota_core_tg$1_0.v_b voutp VSS sg13_lv_nmos ad=0.19p pd=1.38u as=0.19p ps=1.38u w=1u l=1u
X98 voutn iqmod_mfb_lpf_pex_half_1.iqmod_mfb_lpf_pex_ota_core_hybrid_bm_half_0.iqmod_mfb_lpf_pex_ota_core_tg$1_0.v_b VSS VSS sg13_lv_nmos ad=0.19p pd=1.38u as=0.19p ps=1.38u w=1u l=1u
X99 iqmod_mfb_lpf_pex_half_1.iqmod_mfb_lpf_pex_ota_core_hybrid_bm_half_0.iqmod_mfb_lpf_pex_ota_core_tg$1_0.v_a iqmod_mfb_lpf_pex_half_0.iqmod_mfb_lpf_pex_ota_core_hybrid_bm_half_0.iqmod_mfb_lpf_pex_ota_core_inv_NF20$1_1.vin VSS VSS sg13_lv_nmos ad=0.19p pd=1.38u as=0.19p ps=1.38u w=1u l=1u
X100 iqmod_mfb_lpf_pex_half_1.C1_half iqmod_mfb_lpf_pex_half_1.iqmod_mfb_lpf_pex_R1_0.v_b cap_cmim l=8u w=8u
X101 VDD VDD VDD VDD sg13_lv_pmos ad=1.14p pd=6.38u as=0 ps=0 w=6u l=1u
X102 voutp iqmod_mfb_lpf_pex_half_1.iqmod_mfb_lpf_pex_ota_core_hybrid_bm_half_0.iqmod_mfb_lpf_pex_ota_core_tg$1_0.v_b VSS VSS sg13_lv_nmos ad=0.19p pd=1.38u as=0.19p ps=1.38u w=1u l=1u
X103 voutp iqmod_mfb_lpf_pex_half_1.iqmod_mfb_lpf_pex_ota_core_hybrid_bm_half_0.iqmod_mfb_lpf_pex_ota_core_inv_NF20$1_1.vin VSS VSS sg13_lv_nmos ad=0.19p pd=1.38u as=0.19p ps=1.38u w=1u l=1u
X104 iqmod_mfb_lpf_pex_half_1.iqmod_mfb_lpf_pex_ota_core_hybrid_bm_half_0.iqmod_mfb_lpf_pex_ota_core_inv_NF20$1_0.vout voutp VDD VDD sg13_lv_pmos ad=1.14p pd=6.38u as=1.14p ps=6.38u w=6u l=1u
X105 VDD iqmod_mfb_lpf_pex_half_1.iqmod_mfb_lpf_pex_ota_core_hybrid_bm_half_0.iqmod_mfb_lpf_pex_ota_core_inv_NF6$1_1.vout iqmod_mfb_lpf_pex_half_1.iqmod_mfb_lpf_pex_ota_core_hybrid_bm_half_0.iqmod_mfb_lpf_pex_ota_core_tg$1_0.v_b VDD sg13_lv_pmos ad=1.14p pd=6.38u as=1.14p ps=6.38u w=6u l=1u
X106 VSS VSS VSS VSS sg13_lv_nmos ad=0.19p pd=1.38u as=0 ps=0 w=1u l=1u
X107 VSS iqmod_mfb_lpf_pex_half_1.iqmod_mfb_lpf_pex_ota_core_hybrid_bm_half_0.iqmod_mfb_lpf_pex_ota_core_inv_NF20$1_1.vin voutp VSS sg13_lv_nmos ad=0.19p pd=1.38u as=0.19p ps=1.38u w=1u l=1u
X108 iqmod_mfb_lpf_pex_half_1.iqmod_mfb_lpf_pex_ota_core_hybrid_bm_half_0.iqmod_mfb_lpf_pex_ota_core_inv_NF6$1_1.vout iqmod_mfb_lpf_pex_half_1.iqmod_mfb_lpf_pex_ota_core_hybrid_bm_half_0.iqmod_mfb_lpf_pex_ota_core_inv_NF20$1_0.vout VDD VDD sg13_lv_pmos ad=1.14p pd=6.38u as=1.14p ps=6.38u w=6u l=1u
X109 VSS iqmod_mfb_lpf_pex_half_1.iqmod_mfb_lpf_pex_ota_core_hybrid_bm_half_0.iqmod_mfb_lpf_pex_ota_core_tg$1_0.v_a iqmod_mfb_lpf_pex_half_1.iqmod_mfb_lpf_pex_ota_core_hybrid_bm_half_0.iqmod_mfb_lpf_pex_ota_core_tg$1_0.v_b VSS sg13_lv_nmos ad=0.19p pd=1.38u as=0.19p ps=1.38u w=1u l=1u
X110 VDD iqmod_mfb_lpf_pex_half_1.iqmod_mfb_lpf_pex_ota_core_hybrid_bm_half_0.iqmod_mfb_lpf_pex_ota_core_spdt_switch$1_0.iqmod_mfb_lpf_pex_ota_core_spdt_switch_inv$2_0.vout iqmod_mfb_lpf_pex_half_1.iqmod_mfb_lpf_pex_ota_core_hybrid_bm_half_0.iqmod_mfb_lpf_pex_ota_core_inv_NF20$1_1.vin VDD sg13_lv_pmos ad=2.04p pd=12.68u as=1.14p ps=6.38u w=6u l=0.13u
X111 VDD VDD VDD VDD sg13_lv_pmos ad=1.14p pd=6.38u as=0 ps=0 w=6u l=1u
X112 VDD iqmod_mfb_lpf_pex_half_1.iqmod_mfb_lpf_pex_ota_core_hybrid_bm_half_0.iqmod_mfb_lpf_pex_ota_core_inv_NF6$1_1.vout iqmod_mfb_lpf_pex_half_1.iqmod_mfb_lpf_pex_ota_core_hybrid_bm_half_0.iqmod_mfb_lpf_pex_ota_core_tg$1_0.v_b VDD sg13_lv_pmos ad=1.14p pd=6.38u as=1.14p ps=6.38u w=6u l=1u
X113 voutp iqmod_mfb_lpf_pex_half_1.iqmod_mfb_lpf_pex_ota_core_hybrid_bm_half_0.iqmod_mfb_lpf_pex_ota_core_tg$1_0.v_b VDD VDD sg13_lv_pmos ad=1.14p pd=6.38u as=1.14p ps=6.38u w=6u l=1u
X114 iqmod_mfb_lpf_pex_half_1.iqmod_mfb_lpf_pex_ota_core_hybrid_bm_half_0.iqmod_mfb_lpf_pex_ota_core_inv_NF6$1_1.vout di_filter_en iqmod_mfb_lpf_pex_half_1.iqmod_mfb_lpf_pex_ota_core_hybrid_bm_half_0.iqmod_mfb_lpf_pex_ota_core_inv_NF20$1_0.vout VSS sg13_lv_nmos ad=0.19p pd=1.38u as=0.19p ps=1.38u w=1u l=0.13u
X115 voutp iqmod_mfb_lpf_pex_half_1.iqmod_mfb_lpf_pex_ota_core_hybrid_bm_half_0.iqmod_mfb_lpf_pex_ota_core_tg$1_0.v_b VSS VSS sg13_lv_nmos ad=0.19p pd=1.38u as=0.19p ps=1.38u w=1u l=1u
X116 iqmod_mfb_lpf_pex_half_1.iqmod_mfb_lpf_pex_ota_core_hybrid_bm_half_0.iqmod_mfb_lpf_pex_ota_core_inv_NF20$1_0.vout iqmod_mfb_lpf_pex_half_0.iqmod_mfb_lpf_pex_ota_core_hybrid_bm_half_0.iqmod_mfb_lpf_pex_ota_core_tg$1_0.di_tg_ctrl_n iqmod_mfb_lpf_pex_half_1.iqmod_mfb_lpf_pex_ota_core_hybrid_bm_half_0.iqmod_mfb_lpf_pex_ota_core_inv_NF6$1_1.vout VDD sg13_lv_pmos ad=1.14p pd=6.38u as=1.14p ps=6.38u w=6u l=0.13u
X117 VDD iqmod_mfb_lpf_pex_half_1.iqmod_mfb_lpf_pex_ota_core_hybrid_bm_half_0.iqmod_mfb_lpf_pex_ota_core_inv_NF20$1_0.vout iqmod_mfb_lpf_pex_half_1.iqmod_mfb_lpf_pex_ota_core_hybrid_bm_half_0.iqmod_mfb_lpf_pex_ota_core_inv_NF6$1_1.vout VDD sg13_lv_pmos ad=1.14p pd=6.38u as=1.14p ps=6.38u w=6u l=1u
X118 iqmod_mfb_lpf_pex_half_1.C1_half iqmod_mfb_lpf_pex_half_1.iqmod_mfb_lpf_pex_R1_0.v_b cap_cmim l=8u w=8u
X119 iqmod_mfb_lpf_pex_half_1.iqmod_mfb_lpf_pex_ota_core_hybrid_bm_half_0.iqmod_mfb_lpf_pex_ota_core_inv_NF20$1_0.vout di_filter_en iqmod_mfb_lpf_pex_half_1.iqmod_mfb_lpf_pex_ota_core_hybrid_bm_half_0.iqmod_mfb_lpf_pex_ota_core_inv_NF6$1_1.vout VSS sg13_lv_nmos ad=0.34p pd=2.68u as=0.19p ps=1.38u w=1u l=0.13u
X120 VSS iqmod_mfb_lpf_pex_half_1.iqmod_mfb_lpf_pex_ota_core_hybrid_bm_half_0.iqmod_mfb_lpf_pex_ota_core_tg$1_0.v_a iqmod_mfb_lpf_pex_half_1.iqmod_mfb_lpf_pex_ota_core_hybrid_bm_half_0.iqmod_mfb_lpf_pex_ota_core_tg$1_0.v_b VSS sg13_lv_nmos ad=0.19p pd=1.38u as=0.19p ps=1.38u w=1u l=1u
X121 VSS VSS VSS VSS sg13_lv_nmos ad=0.34p pd=2.68u as=0 ps=0 w=1u l=1u
X122 voutn iqmod_mfb_lpf_pex_half_1.iqmod_mfb_lpf_pex_ota_core_hybrid_bm_half_0.iqmod_mfb_lpf_pex_ota_core_tg$1_0.v_b VDD VDD sg13_lv_pmos ad=1.14p pd=6.38u as=1.14p ps=6.38u w=6u l=1u
X123 voutn iqmod_mfb_lpf_pex_half_1.iqmod_mfb_lpf_pex_ota_core_hybrid_bm_half_0.iqmod_mfb_lpf_pex_ota_core_tg$1_0.v_b VDD VDD sg13_lv_pmos ad=1.14p pd=6.38u as=1.14p ps=6.38u w=6u l=1u
X124 VDD iqmod_mfb_lpf_pex_half_1.iqmod_mfb_lpf_pex_ota_core_hybrid_bm_half_0.iqmod_mfb_lpf_pex_ota_core_inv_NF20$1_1.vin voutp VDD sg13_lv_pmos ad=1.14p pd=6.38u as=1.14p ps=6.38u w=6u l=1u
X125 VDD iqmod_mfb_lpf_pex_half_1.iqmod_mfb_lpf_pex_ota_core_hybrid_bm_half_0.iqmod_mfb_lpf_pex_ota_core_inv_NF20$1_1.vin iqmod_mfb_lpf_pex_half_1.iqmod_mfb_lpf_pex_ota_core_hybrid_bm_half_0.iqmod_mfb_lpf_pex_ota_core_tg$1_0.v_a VDD sg13_lv_pmos ad=1.14p pd=6.38u as=1.14p ps=6.38u w=6u l=1u
X126 iqmod_mfb_lpf_pex_half_0.iqmod_mfb_lpf_pex_ota_core_hybrid_bm_half_0.iqmod_mfb_lpf_pex_ota_core_inv_NF20$1_1.vin iqmod_mfb_lpf_pex_half_0.iqmod_mfb_lpf_pex_ota_core_hybrid_bm_half_0.iqmod_mfb_lpf_pex_ota_core_spdt_switch$1_0.iqmod_mfb_lpf_pex_ota_core_spdt_switch_inv$2_0.vout VDD VDD sg13_lv_pmos ad=1.14p pd=6.38u as=1.14p ps=6.38u w=6u l=0.13u
X127 VDD iqmod_mfb_lpf_pex_half_1.iqmod_mfb_lpf_pex_ota_core_hybrid_bm_half_0.iqmod_mfb_lpf_pex_ota_core_tg$1_0.v_b voutn VDD sg13_lv_pmos ad=1.14p pd=6.38u as=1.14p ps=6.38u w=6u l=1u
X128 VDD VDD VDD VDD sg13_lv_pmos ad=1.14p pd=6.38u as=0 ps=0 w=6u l=0.13u
X129 iqmod_mfb_lpf_pex_half_1.C1_half iqmod_mfb_lpf_pex_half_1.iqmod_mfb_lpf_pex_R1_0.v_b cap_cmim l=8u w=8u
X130 VDD VDD VDD VDD sg13_lv_pmos ad=2.04p pd=12.68u as=0 ps=0 w=6u l=0.13u
X131 VSS VSS VSS VSS sg13_lv_nmos ad=0.19p pd=1.38u as=0 ps=0 w=1u l=1u
X132 vinn a_25290_n4603# VSS rhigh l=59u w=0.5u
X133 a_636_n4603# iqmod_mfb_lpf_pex_half_1.iqmod_mfb_lpf_pex_R1_0.v_b VSS rhigh l=27u w=0.5u
X134 voutp iqmod_mfb_lpf_pex_half_1.iqmod_mfb_lpf_pex_ota_core_hybrid_bm_half_0.iqmod_mfb_lpf_pex_ota_core_inv_NF20$1_1.vin VDD VDD sg13_lv_pmos ad=1.14p pd=6.38u as=1.14p ps=6.38u w=6u l=1u
X135 iqmod_mfb_lpf_pex_half_1.iqmod_mfb_lpf_pex_ota_core_hybrid_bm_half_0.iqmod_mfb_lpf_pex_ota_core_inv_NF20$1_0.vout voutp VSS VSS sg13_lv_nmos ad=0.19p pd=1.38u as=0.19p ps=1.38u w=1u l=1u
X136 VSS VSS VSS VSS sg13_lv_nmos ad=0.19p pd=1.38u as=0 ps=0 w=1u l=1u
X137 VSS iqmod_mfb_lpf_pex_half_1.iqmod_mfb_lpf_pex_ota_core_hybrid_bm_half_0.iqmod_mfb_lpf_pex_ota_core_inv_NF20$1_1.vin voutp VSS sg13_lv_nmos ad=0.19p pd=1.38u as=0.19p ps=1.38u w=1u l=1u
X138 VSS iqmod_mfb_lpf_pex_half_0.iqmod_mfb_lpf_pex_ota_core_hybrid_bm_half_0.iqmod_mfb_lpf_pex_ota_core_inv_NF20$1_1.vin voutn VSS sg13_lv_nmos ad=0.19p pd=1.38u as=0.19p ps=1.38u w=1u l=1u
X139 iqmod_mfb_lpf_pex_half_1.iqmod_mfb_lpf_pex_ota_core_hybrid_bm_half_0.iqmod_mfb_lpf_pex_ota_core_inv_NF20$1_1.vin iqmod_mfb_lpf_pex_half_1.iqmod_mfb_lpf_pex_ota_core_hybrid_bm_half_0.iqmod_mfb_lpf_pex_ota_core_tg$1_0.di_tg_ctrl_n vinn VDD sg13_lv_pmos ad=1.14p pd=6.38u as=1.14p ps=6.38u w=6u l=0.13u
X140 a_6620_n4303# a_12906_n4603# VSS rhigh l=31u w=0.5u
X141 iqmod_mfb_lpf_pex_half_0.iqmod_mfb_lpf_pex_ota_core_hybrid_bm_half_0.iqmod_mfb_lpf_pex_ota_core_tg$1_0.di_tg_ctrl_n di_filter_en VDD VDD sg13_lv_pmos ad=1.14p pd=6.38u as=1.14p ps=6.38u w=6u l=0.13u
X142 VDD VDD VDD VDD sg13_lv_pmos ad=2.04p pd=12.68u as=0 ps=0 w=6u l=1u
X143 iqmod_mfb_lpf_pex_half_1.iqmod_mfb_lpf_pex_ota_core_hybrid_bm_half_0.iqmod_mfb_lpf_pex_ota_core_tg$1_0.v_a iqmod_mfb_lpf_pex_half_1.iqmod_mfb_lpf_pex_ota_core_hybrid_bm_half_0.iqmod_mfb_lpf_pex_ota_core_inv_NF20$1_1.vin VDD VDD sg13_lv_pmos ad=1.14p pd=6.38u as=1.14p ps=6.38u w=6u l=1u
X144 voutn iqmod_mfb_lpf_pex_half_0.iqmod_mfb_lpf_pex_ota_core_hybrid_bm_half_0.iqmod_mfb_lpf_pex_ota_core_inv_NF20$1_1.vin VSS VSS sg13_lv_nmos ad=0.19p pd=1.38u as=0.19p ps=1.38u w=1u l=1u
X145 a_25788_n4603# a_37874_n4303# VSS rhigh l=60u w=0.5u
X146 VSS VSS VSS VSS sg13_lv_nmos ad=0.19p pd=1.38u as=0 ps=0 w=1u l=0.13u
X147 voutp iqmod_mfb_lpf_pex_half_1.iqmod_mfb_lpf_pex_ota_core_hybrid_bm_half_0.iqmod_mfb_lpf_pex_ota_core_tg$1_0.v_b VDD VDD sg13_lv_pmos ad=1.14p pd=6.38u as=1.14p ps=6.38u w=6u l=1u
X148 VSS voutn iqmod_mfb_lpf_pex_half_1.iqmod_mfb_lpf_pex_ota_core_hybrid_bm_half_0.iqmod_mfb_lpf_pex_ota_core_inv_NF20$1_0.vout VSS sg13_lv_nmos ad=0.19p pd=1.38u as=0.19p ps=1.38u w=1u l=1u
X149 VSS iqmod_mfb_lpf_pex_half_1.iqmod_mfb_lpf_pex_ota_core_hybrid_bm_half_0.iqmod_mfb_lpf_pex_ota_core_tg$1_0.v_b voutn VSS sg13_lv_nmos ad=0.19p pd=1.38u as=0.19p ps=1.38u w=1u l=1u
X150 VDD iqmod_mfb_lpf_pex_half_0.iqmod_mfb_lpf_pex_ota_core_hybrid_bm_half_0.iqmod_mfb_lpf_pex_ota_core_inv_NF20$1_1.vin voutn VDD sg13_lv_pmos ad=1.14p pd=6.38u as=1.14p ps=6.38u w=6u l=1u
X151 VDD iqmod_mfb_lpf_pex_half_0.iqmod_mfb_lpf_pex_ota_core_hybrid_bm_half_0.iqmod_mfb_lpf_pex_ota_core_tg$1_0.di_tg_ctrl_n iqmod_mfb_lpf_pex_half_0.iqmod_mfb_lpf_pex_ota_core_hybrid_bm_half_0.iqmod_mfb_lpf_pex_ota_core_inv_NF20$1_1.vin VSS sg13_lv_nmos ad=0.19p pd=1.38u as=0.19p ps=1.38u w=1u l=0.13u