* PEX produced on Sat Mar 28 07:07:32 PM CET 2026 using /foss/tools/sak/sak-pex.sh with m=1 and s=1
* NGSPICE file created from iqmod_mixer_pex.ext - technology: ihp-sg13g2

.subckt iqmod_mixer_pex vinp_IF VDD vinp_LO vinn_IF VSS vinn_LO voutp_RF
+ voutn_RF
X0 VSS iqmod_mixer_pex_half_1.iqmod_mixer_pex_se2diff_0.iqmod_mixer_pex_se2diff_half_tg$1_0.iqmod_mixer_pex_se2diff_inv_NF18$4_0.vout iqmod_mixer_pex_half_1.iqmod_mixer_pex_tg_0.di_tg_ctrl_n VSS sg13_lv_nmos ad=0.19p pd=1.38u as=0.19p ps=1.38u w=1u l=0.13u
X1 voutp_RF iqmod_mixer_pex_half_1.iqmod_mixer_pex_tg_0.di_tg_ctrl_n voutp_RF VSS sg13_lv_nmos ad=0.57p pd=3.38u as=93.24p ps=0.91908m w=3u l=0.13u
X2 iqmod_mixer_pex_half_1.iqmod_mixer_pex_tg_0.di_tg_ctrl iqmod_mixer_pex_half_1.iqmod_mixer_pex_se2diff_0.iqmod_mixer_pex_se2diff_half_inv$1_0.iqmod_mixer_pex_se2diff_inv_NF18$5_0.vout VDD VDD sg13_lv_pmos ad=0.57p pd=3.38u as=0.57p ps=3.38u w=3u l=0.13u
X3 iqmod_mixer_pex_half_1.iqmod_mixer_pex_tg_0.di_tg_ctrl_n iqmod_mixer_pex_half_1.iqmod_mixer_pex_se2diff_0.iqmod_mixer_pex_se2diff_half_tg$1_0.iqmod_mixer_pex_se2diff_inv_NF18$4_0.vout VSS VSS sg13_lv_nmos ad=0.19p pd=1.38u as=0.19p ps=1.38u w=1u l=0.13u
X4 iqmod_mixer_pex_half_1.iqmod_mixer_pex_tg_0.di_tg_ctrl_n iqmod_mixer_pex_half_1.iqmod_mixer_pex_se2diff_0.iqmod_mixer_pex_se2diff_half_tg$1_0.iqmod_mixer_pex_se2diff_inv_NF18$4_0.vout VSS VSS sg13_lv_nmos ad=0.19p pd=1.38u as=0.19p ps=1.38u w=1u l=0.13u
X5 VDD iqmod_mixer_pex_half_0.iqmod_mixer_pex_se2diff_0.iqmod_mixer_pex_se2diff_half_inv$1_0.iqmod_mixer_pex_se2diff_inv_NF6$5_2.vin iqmod_mixer_pex_half_0.iqmod_mixer_pex_se2diff_0.iqmod_mixer_pex_se2diff_half_inv$1_0.iqmod_mixer_pex_se2diff_inv_NF6$5_2.vout VDD sg13_lv_pmos ad=0.57p pd=3.38u as=0.57p ps=3.38u w=3u l=0.13u
X6 VDD iqmod_mixer_pex_half_1.iqmod_mixer_pex_se2diff_0.iqmod_mixer_pex_se2diff_half_tg$1_0.iqmod_mixer_pex_se2diff_inv_NF6$4_0.vout iqmod_mixer_pex_half_1.iqmod_mixer_pex_se2diff_0.iqmod_mixer_pex_se2diff_half_tg$1_0.iqmod_mixer_pex_se2diff_inv_NF18$4_0.vout VDD sg13_lv_pmos ad=0.57p pd=3.38u as=0.57p ps=3.38u w=3u l=0.13u
X7 iqmod_mixer_pex_half_0.iqmod_mixer_pex_se2diff_0.iqmod_mixer_pex_se2diff_half_inv$1_0.iqmod_mixer_pex_se2diff_inv_NF2$5_0.vout VDD iqmod_mixer_pex_half_0.iqmod_mixer_pex_se2diff_0.iqmod_mixer_pex_se2diff_half_tg$1_0.iqmod_mixer_pex_se2diff_tg_NF6$2_0.v_b VSS sg13_lv_nmos ad=0.19p pd=1.38u as=0.19p ps=1.38u w=1u l=0.13u
X8 VDD VDD VDD VDD sg13_lv_pmos ad=0.57p pd=3.38u as=1.02028n ps=2.72164m w=3u l=0.13u
X9 VSS iqmod_mixer_pex_half_1.iqmod_mixer_pex_se2diff_0.iqmod_mixer_pex_se2diff_half_tg$1_0.iqmod_mixer_pex_se2diff_inv_NF18$4_0.vout iqmod_mixer_pex_half_1.iqmod_mixer_pex_tg_0.di_tg_ctrl_n VSS sg13_lv_nmos ad=0.19p pd=1.38u as=0.19p ps=1.38u w=1u l=0.13u
X10 iqmod_mixer_pex_half_1.iqmod_mixer_pex_se2diff_0.iqmod_mixer_pex_se2diff_half_inv$1_0.iqmod_mixer_pex_se2diff_inv_NF2$5_0.vout vinp_LO VDD VDD sg13_lv_pmos ad=0.57p pd=3.38u as=0.57p ps=3.38u w=3u l=0.13u
X11 iqmod_mixer_pex_half_1.iqmod_mixer_pex_se2diff_0.iqmod_mixer_pex_se2diff_half_tg$1_0.iqmod_mixer_pex_se2diff_inv_NF18$4_0.vout iqmod_mixer_pex_half_1.iqmod_mixer_pex_se2diff_0.iqmod_mixer_pex_se2diff_half_tg$1_0.iqmod_mixer_pex_se2diff_inv_NF6$4_0.vout VDD VDD sg13_lv_pmos ad=0.57p pd=3.38u as=0.57p ps=3.38u w=3u l=0.13u
X12 iqmod_mixer_pex_half_1.iqmod_mixer_pex_tg_0.di_tg_ctrl_n iqmod_mixer_pex_half_1.iqmod_mixer_pex_se2diff_0.iqmod_mixer_pex_se2diff_half_tg$1_0.iqmod_mixer_pex_se2diff_inv_NF18$4_0.vout VDD VDD sg13_lv_pmos ad=0.57p pd=3.38u as=0.57p ps=3.38u w=3u l=0.13u
X13 iqmod_mixer_pex_half_0.iqmod_mixer_pex_se2diff_0.iqmod_mixer_pex_se2diff_half_inv$1_0.iqmod_mixer_pex_se2diff_inv_NF2$5_1.vout iqmod_mixer_pex_half_0.iqmod_mixer_pex_se2diff_0.iqmod_mixer_pex_se2diff_half_inv$1_0.iqmod_mixer_pex_se2diff_inv_NF6$5_2.vout VDD VDD sg13_lv_pmos ad=0.57p pd=3.38u as=0.57p ps=3.38u w=3u l=0.13u
X14 voutn_RF iqmod_mixer_pex_half_0.iqmod_mixer_pex_tg_0.di_tg_ctrl_n voutn_RF VSS sg13_lv_nmos ad=0.57p pd=3.38u as=93.24p ps=0.91908m w=3u l=0.13u
X15 VDD iqmod_mixer_pex_half_1.iqmod_mixer_pex_se2diff_0.iqmod_mixer_pex_se2diff_half_tg$1_0.iqmod_mixer_pex_se2diff_inv_NF18$4_0.vout iqmod_mixer_pex_half_1.iqmod_mixer_pex_tg_0.di_tg_ctrl_n VDD sg13_lv_pmos ad=0.57p pd=3.38u as=0.57p ps=3.38u w=3u l=0.13u
X16 VDD iqmod_mixer_pex_half_0.iqmod_mixer_pex_se2diff_0.iqmod_mixer_pex_se2diff_half_inv$1_0.iqmod_mixer_pex_se2diff_inv_NF6$5_2.vin iqmod_mixer_pex_half_0.iqmod_mixer_pex_se2diff_0.iqmod_mixer_pex_se2diff_half_inv$1_0.iqmod_mixer_pex_se2diff_inv_NF6$5_2.vout VDD sg13_lv_pmos ad=0.57p pd=3.38u as=0.57p ps=3.38u w=3u l=0.13u
X17 iqmod_mixer_pex_half_0.iqmod_mixer_pex_se2diff_0.iqmod_mixer_pex_se2diff_half_inv$1_0.iqmod_mixer_pex_se2diff_inv_NF6$5_2.vin iqmod_mixer_pex_half_0.iqmod_mixer_pex_se2diff_0.iqmod_mixer_pex_se2diff_half_inv$1_0.iqmod_mixer_pex_se2diff_inv_NF2$5_0.vout VDD VDD sg13_lv_pmos ad=0.57p pd=3.38u as=0.57p ps=3.38u w=3u l=0.13u
X18 voutp_RF iqmod_mixer_pex_half_1.iqmod_mixer_pex_tg_0.di_tg_ctrl_n voutp_RF VSS sg13_lv_nmos ad=0.57p pd=3.38u as=0 ps=0 w=3u l=0.13u
X19 iqmod_mixer_pex_half_1.iqmod_mixer_pex_se2diff_0.iqmod_mixer_pex_se2diff_half_inv$1_0.iqmod_mixer_pex_se2diff_inv_NF18$5_0.vout iqmod_mixer_pex_half_1.iqmod_mixer_pex_se2diff_0.iqmod_mixer_pex_se2diff_half_inv$1_0.iqmod_mixer_pex_se2diff_inv_NF6$5_1.vout VSS VSS sg13_lv_nmos ad=0.19p pd=1.38u as=0.19p ps=1.38u w=1u l=0.13u
X20 VSS iqmod_mixer_pex_half_1.iqmod_mixer_pex_se2diff_0.iqmod_mixer_pex_se2diff_half_inv$1_0.iqmod_mixer_pex_se2diff_inv_NF18$5_0.vout iqmod_mixer_pex_half_1.iqmod_mixer_pex_tg_0.di_tg_ctrl VSS sg13_lv_nmos ad=0.19p pd=1.38u as=0.19p ps=1.38u w=1u l=0.13u
X21 voutp_RF iqmod_mixer_pex_half_1.iqmod_mixer_pex_tg_0.di_tg_ctrl vinp_IF VSS sg13_lv_nmos ad=0.57p pd=3.38u as=0.57p ps=3.38u w=3u l=0.13u
X22 voutn_RF iqmod_mixer_pex_half_0.iqmod_mixer_pex_tg_0.di_tg_ctrl_n voutn_RF VSS sg13_lv_nmos ad=0.57p pd=3.38u as=0 ps=0 w=3u l=0.13u
X23 vinn_IF iqmod_mixer_pex_half_0.iqmod_mixer_pex_tg_0.di_tg_ctrl voutn_RF VSS sg13_lv_nmos ad=0.57p pd=3.38u as=0.57p ps=3.38u w=3u l=0.13u
X24 iqmod_mixer_pex_half_1.iqmod_mixer_pex_tg_0.di_tg_ctrl_n iqmod_mixer_pex_half_1.iqmod_mixer_pex_se2diff_0.iqmod_mixer_pex_se2diff_half_tg$1_0.iqmod_mixer_pex_se2diff_inv_NF18$4_0.vout VSS VSS sg13_lv_nmos ad=0.19p pd=1.38u as=0.19p ps=1.38u w=1u l=0.13u
X25 VDD iqmod_mixer_pex_half_0.iqmod_mixer_pex_se2diff_0.iqmod_mixer_pex_se2diff_half_inv$1_0.iqmod_mixer_pex_se2diff_inv_NF2$5_1.vout iqmod_mixer_pex_half_0.iqmod_mixer_pex_se2diff_0.iqmod_mixer_pex_se2diff_half_inv$1_0.iqmod_mixer_pex_se2diff_inv_NF6$5_2.vout VDD sg13_lv_pmos ad=0.57p pd=3.38u as=0.57p ps=3.38u w=3u l=0.13u
X26 iqmod_mixer_pex_half_0.iqmod_mixer_pex_se2diff_0.iqmod_mixer_pex_se2diff_half_inv$1_0.iqmod_mixer_pex_se2diff_inv_NF2$5_1.vout iqmod_mixer_pex_half_0.iqmod_mixer_pex_se2diff_0.iqmod_mixer_pex_se2diff_half_tg$1_0.iqmod_mixer_pex_se2diff_tg_NF6$2_0.v_b VDD VDD sg13_lv_pmos ad=0.57p pd=3.38u as=0.57p ps=3.38u w=3u l=0.13u
X27 iqmod_mixer_pex_half_1.iqmod_mixer_pex_tg_0.di_tg_ctrl iqmod_mixer_pex_half_1.iqmod_mixer_pex_se2diff_0.iqmod_mixer_pex_se2diff_half_inv$1_0.iqmod_mixer_pex_se2diff_inv_NF18$5_0.vout VSS VSS sg13_lv_nmos ad=0.19p pd=1.38u as=0.19p ps=1.38u w=1u l=0.13u
X28 voutn_RF iqmod_mixer_pex_half_0.iqmod_mixer_pex_tg_0.di_tg_ctrl vinn_IF VSS sg13_lv_nmos ad=0.57p pd=3.38u as=0.57p ps=3.38u w=3u l=0.13u
X29 vinn_IF iqmod_mixer_pex_half_0.iqmod_mixer_pex_tg_0.di_tg_ctrl voutn_RF VSS sg13_lv_nmos ad=0.57p pd=3.38u as=0.57p ps=3.38u w=3u l=0.13u
X30 iqmod_mixer_pex_half_0.iqmod_mixer_pex_tg_0.di_tg_ctrl iqmod_mixer_pex_half_0.iqmod_mixer_pex_se2diff_0.iqmod_mixer_pex_se2diff_half_inv$1_0.iqmod_mixer_pex_se2diff_inv_NF18$5_0.vout VDD VDD sg13_lv_pmos ad=0.57p pd=3.38u as=0.57p ps=3.38u w=3u l=0.13u
X31 VDD iqmod_mixer_pex_half_0.iqmod_mixer_pex_se2diff_0.iqmod_mixer_pex_se2diff_half_inv$1_0.iqmod_mixer_pex_se2diff_inv_NF6$5_1.vout iqmod_mixer_pex_half_0.iqmod_mixer_pex_se2diff_0.iqmod_mixer_pex_se2diff_half_inv$1_0.iqmod_mixer_pex_se2diff_inv_NF18$5_0.vout VDD sg13_lv_pmos ad=0.57p pd=3.38u as=0.57p ps=3.38u w=3u l=0.13u
X32 iqmod_mixer_pex_half_1.iqmod_mixer_pex_tg_0.di_tg_ctrl_n iqmod_mixer_pex_half_1.iqmod_mixer_pex_se2diff_0.iqmod_mixer_pex_se2diff_half_tg$1_0.iqmod_mixer_pex_se2diff_inv_NF18$4_0.vout VDD VDD sg13_lv_pmos ad=0.57p pd=3.38u as=0.57p ps=3.38u w=3u l=0.13u
X33 VDD iqmod_mixer_pex_half_1.iqmod_mixer_pex_se2diff_0.iqmod_mixer_pex_se2diff_half_inv$1_0.iqmod_mixer_pex_se2diff_inv_NF6$5_2.vout iqmod_mixer_pex_half_1.iqmod_mixer_pex_se2diff_0.iqmod_mixer_pex_se2diff_half_inv$1_0.iqmod_mixer_pex_se2diff_inv_NF6$5_1.vout VDD sg13_lv_pmos ad=0.57p pd=3.38u as=0.57p ps=3.38u w=3u l=0.13u
X34 iqmod_mixer_pex_half_1.iqmod_mixer_pex_se2diff_0.iqmod_mixer_pex_se2diff_half_inv$1_0.iqmod_mixer_pex_se2diff_inv_NF18$5_0.vout iqmod_mixer_pex_half_1.iqmod_mixer_pex_se2diff_0.iqmod_mixer_pex_se2diff_half_inv$1_0.iqmod_mixer_pex_se2diff_inv_NF6$5_1.vout VDD VDD sg13_lv_pmos ad=0.57p pd=3.38u as=0.57p ps=3.38u w=3u l=0.13u
X35 VDD iqmod_mixer_pex_half_1.iqmod_mixer_pex_se2diff_0.iqmod_mixer_pex_se2diff_half_tg$1_0.iqmod_mixer_pex_se2diff_inv_NF18$4_0.vout iqmod_mixer_pex_half_1.iqmod_mixer_pex_tg_0.di_tg_ctrl_n VDD sg13_lv_pmos ad=0.57p pd=3.38u as=0.57p ps=3.38u w=3u l=0.13u
X36 iqmod_mixer_pex_half_0.iqmod_mixer_pex_tg_0.di_tg_ctrl iqmod_mixer_pex_half_0.iqmod_mixer_pex_se2diff_0.iqmod_mixer_pex_se2diff_half_inv$1_0.iqmod_mixer_pex_se2diff_inv_NF18$5_0.vout VDD VDD sg13_lv_pmos ad=0.57p pd=3.38u as=0.57p ps=3.38u w=3u l=0.13u
X37 vinn_IF iqmod_mixer_pex_half_0.iqmod_mixer_pex_tg_0.di_tg_ctrl voutn_RF VSS sg13_lv_nmos ad=0.57p pd=3.38u as=0.57p ps=3.38u w=3u l=0.13u
X38 vinn_IF iqmod_mixer_pex_half_0.iqmod_mixer_pex_tg_0.di_tg_ctrl voutn_RF VSS sg13_lv_nmos ad=0.57p pd=3.38u as=0.57p ps=3.38u w=3u l=0.13u
X39 VDD iqmod_mixer_pex_half_1.iqmod_mixer_pex_se2diff_0.iqmod_mixer_pex_se2diff_half_inv$1_0.iqmod_mixer_pex_se2diff_inv_NF18$5_0.vout iqmod_mixer_pex_half_1.iqmod_mixer_pex_tg_0.di_tg_ctrl VDD sg13_lv_pmos ad=0.57p pd=3.38u as=0.57p ps=3.38u w=3u l=0.13u
X40 iqmod_mixer_pex_half_1.iqmod_mixer_pex_se2diff_0.iqmod_mixer_pex_se2diff_half_inv$1_0.iqmod_mixer_pex_se2diff_inv_NF2$5_1.vout iqmod_mixer_pex_half_1.iqmod_mixer_pex_se2diff_0.iqmod_mixer_pex_se2diff_half_tg$1_0.iqmod_mixer_pex_se2diff_tg_NF6$2_0.v_b VDD VDD sg13_lv_pmos ad=0.57p pd=3.38u as=0.57p ps=3.38u w=3u l=0.13u
X41 VDD VDD VDD VDD sg13_lv_pmos ad=0.57p pd=3.38u as=0 ps=0 w=3u l=0.13u
X42 VDD iqmod_mixer_pex_half_0.iqmod_mixer_pex_se2diff_0.iqmod_mixer_pex_se2diff_half_tg$1_0.iqmod_mixer_pex_se2diff_inv_NF18$4_0.vout iqmod_mixer_pex_half_0.iqmod_mixer_pex_tg_0.di_tg_ctrl_n VDD sg13_lv_pmos ad=0.57p pd=3.38u as=0.57p ps=3.38u w=3u l=0.13u
X43 VDD iqmod_mixer_pex_half_0.iqmod_mixer_pex_se2diff_0.iqmod_mixer_pex_se2diff_half_tg$1_0.iqmod_mixer_pex_se2diff_inv_NF18$4_0.vout iqmod_mixer_pex_half_0.iqmod_mixer_pex_tg_0.di_tg_ctrl_n VDD sg13_lv_pmos ad=0.57p pd=3.38u as=0.57p ps=3.38u w=3u l=0.13u
X44 VDD iqmod_mixer_pex_half_0.iqmod_mixer_pex_se2diff_0.iqmod_mixer_pex_se2diff_half_inv$1_0.iqmod_mixer_pex_se2diff_inv_NF6$5_1.vout iqmod_mixer_pex_half_0.iqmod_mixer_pex_se2diff_0.iqmod_mixer_pex_se2diff_half_inv$1_0.iqmod_mixer_pex_se2diff_inv_NF18$5_0.vout VDD sg13_lv_pmos ad=0.57p pd=3.38u as=0.57p ps=3.38u w=3u l=0.13u
X45 iqmod_mixer_pex_half_0.iqmod_mixer_pex_se2diff_0.iqmod_mixer_pex_se2diff_half_inv$1_0.iqmod_mixer_pex_se2diff_inv_NF6$5_1.vout iqmod_mixer_pex_half_0.iqmod_mixer_pex_se2diff_0.iqmod_mixer_pex_se2diff_half_inv$1_0.iqmod_mixer_pex_se2diff_inv_NF6$5_2.vout VDD VDD sg13_lv_pmos ad=0.57p pd=3.38u as=0.57p ps=3.38u w=3u l=0.13u
X46 iqmod_mixer_pex_half_1.iqmod_mixer_pex_tg_0.di_tg_ctrl iqmod_mixer_pex_half_1.iqmod_mixer_pex_se2diff_0.iqmod_mixer_pex_se2diff_half_inv$1_0.iqmod_mixer_pex_se2diff_inv_NF18$5_0.vout VDD VDD sg13_lv_pmos ad=0.57p pd=3.38u as=0.57p ps=3.38u w=3u l=0.13u
X47 iqmod_mixer_pex_half_1.iqmod_mixer_pex_tg_0.di_tg_ctrl iqmod_mixer_pex_half_1.iqmod_mixer_pex_se2diff_0.iqmod_mixer_pex_se2diff_half_inv$1_0.iqmod_mixer_pex_se2diff_inv_NF18$5_0.vout VSS VSS sg13_lv_nmos ad=0.19p pd=1.38u as=0.19p ps=1.38u w=1u l=0.13u
X48 VSS iqmod_mixer_pex_half_1.iqmod_mixer_pex_se2diff_0.iqmod_mixer_pex_se2diff_half_tg$1_0.iqmod_mixer_pex_se2diff_inv_NF6$4_0.vout iqmod_mixer_pex_half_1.iqmod_mixer_pex_se2diff_0.iqmod_mixer_pex_se2diff_half_tg$1_0.iqmod_mixer_pex_se2diff_inv_NF18$4_0.vout VSS sg13_lv_nmos ad=0.19p pd=1.38u as=0.19p ps=1.38u w=1u l=0.13u
X49 voutp_RF iqmod_mixer_pex_half_1.iqmod_mixer_pex_tg_0.di_tg_ctrl_n vinp_IF VDD sg13_lv_pmos ad=1.71p pd=9.38u as=1.71p ps=9.38u w=9u l=0.13u
X50 VSS iqmod_mixer_pex_half_0.iqmod_mixer_pex_se2diff_0.iqmod_mixer_pex_se2diff_half_inv$1_0.iqmod_mixer_pex_se2diff_inv_NF18$5_0.vout iqmod_mixer_pex_half_0.iqmod_mixer_pex_tg_0.di_tg_ctrl VSS sg13_lv_nmos ad=0.19p pd=1.38u as=0.19p ps=1.38u w=1u l=0.13u
X51 vinn_IF iqmod_mixer_pex_half_0.iqmod_mixer_pex_tg_0.di_tg_ctrl voutn_RF VSS sg13_lv_nmos ad=0.57p pd=3.38u as=0.57p ps=3.38u w=3u l=0.13u
X52 VDD iqmod_mixer_pex_half_0.iqmod_mixer_pex_se2diff_0.iqmod_mixer_pex_se2diff_half_tg$1_0.iqmod_mixer_pex_se2diff_inv_NF18$4_0.vout iqmod_mixer_pex_half_0.iqmod_mixer_pex_tg_0.di_tg_ctrl_n VDD sg13_lv_pmos ad=0.57p pd=3.38u as=0.57p ps=3.38u w=3u l=0.13u
X53 iqmod_mixer_pex_half_0.iqmod_mixer_pex_tg_0.di_tg_ctrl iqmod_mixer_pex_half_0.iqmod_mixer_pex_se2diff_0.iqmod_mixer_pex_se2diff_half_inv$1_0.iqmod_mixer_pex_se2diff_inv_NF18$5_0.vout VDD VDD sg13_lv_pmos ad=0.57p pd=3.38u as=0.57p ps=3.38u w=3u l=0.13u
X54 VSS iqmod_mixer_pex_half_0.iqmod_mixer_pex_se2diff_0.iqmod_mixer_pex_se2diff_half_inv$1_0.iqmod_mixer_pex_se2diff_inv_NF18$5_0.vout iqmod_mixer_pex_half_0.iqmod_mixer_pex_tg_0.di_tg_ctrl VSS sg13_lv_nmos ad=0.19p pd=1.38u as=0.19p ps=1.38u w=1u l=0.13u
X55 VDD iqmod_mixer_pex_half_1.iqmod_mixer_pex_se2diff_0.iqmod_mixer_pex_se2diff_half_inv$1_0.iqmod_mixer_pex_se2diff_inv_NF6$5_2.vin iqmod_mixer_pex_half_1.iqmod_mixer_pex_se2diff_0.iqmod_mixer_pex_se2diff_half_inv$1_0.iqmod_mixer_pex_se2diff_inv_NF6$5_2.vout VDD sg13_lv_pmos ad=0.57p pd=3.38u as=0.57p ps=3.38u w=3u l=0.13u
X56 vinp_IF iqmod_mixer_pex_half_1.iqmod_mixer_pex_tg_0.di_tg_ctrl_n voutp_RF VDD sg13_lv_pmos ad=1.71p pd=9.38u as=1.71p ps=9.38u w=9u l=0.13u
X57 VDD iqmod_mixer_pex_half_0.iqmod_mixer_pex_se2diff_0.iqmod_mixer_pex_se2diff_half_inv$1_0.iqmod_mixer_pex_se2diff_inv_NF2$5_1.vout iqmod_mixer_pex_half_0.iqmod_mixer_pex_se2diff_0.iqmod_mixer_pex_se2diff_half_tg$1_0.iqmod_mixer_pex_se2diff_inv_NF6$4_0.vout VDD sg13_lv_pmos ad=0.57p pd=3.38u as=0.57p ps=3.38u w=3u l=0.13u
X58 iqmod_mixer_pex_half_0.iqmod_mixer_pex_se2diff_0.iqmod_mixer_pex_se2diff_half_tg$1_0.iqmod_mixer_pex_se2diff_inv_NF18$4_0.vout iqmod_mixer_pex_half_0.iqmod_mixer_pex_se2diff_0.iqmod_mixer_pex_se2diff_half_tg$1_0.iqmod_mixer_pex_se2diff_inv_NF6$4_0.vout VDD VDD sg13_lv_pmos ad=0.57p pd=3.38u as=0.57p ps=3.38u w=3u l=0.13u
X59 iqmod_mixer_pex_half_0.iqmod_mixer_pex_se2diff_0.iqmod_mixer_pex_se2diff_half_tg$1_0.iqmod_mixer_pex_se2diff_inv_NF18$4_0.vout iqmod_mixer_pex_half_0.iqmod_mixer_pex_se2diff_0.iqmod_mixer_pex_se2diff_half_tg$1_0.iqmod_mixer_pex_se2diff_inv_NF6$4_0.vout VDD VDD sg13_lv_pmos ad=0.57p pd=3.38u as=0.57p ps=3.38u w=3u l=0.13u
X60 VDD iqmod_mixer_pex_half_0.iqmod_mixer_pex_se2diff_0.iqmod_mixer_pex_se2diff_half_tg$1_0.iqmod_mixer_pex_se2diff_inv_NF18$4_0.vout iqmod_mixer_pex_half_0.iqmod_mixer_pex_tg_0.di_tg_ctrl_n VDD sg13_lv_pmos ad=0.57p pd=3.38u as=0.57p ps=3.38u w=3u l=0.13u
X61 iqmod_mixer_pex_half_1.iqmod_mixer_pex_tg_0.di_tg_ctrl iqmod_mixer_pex_half_1.iqmod_mixer_pex_se2diff_0.iqmod_mixer_pex_se2diff_half_inv$1_0.iqmod_mixer_pex_se2diff_inv_NF18$5_0.vout VDD VDD sg13_lv_pmos ad=0.57p pd=3.38u as=0.57p ps=3.38u w=3u l=0.13u
X62 iqmod_mixer_pex_half_1.iqmod_mixer_pex_se2diff_0.iqmod_mixer_pex_se2diff_half_inv$1_0.iqmod_mixer_pex_se2diff_inv_NF6$5_2.vout iqmod_mixer_pex_half_1.iqmod_mixer_pex_se2diff_0.iqmod_mixer_pex_se2diff_half_inv$1_0.iqmod_mixer_pex_se2diff_inv_NF6$5_2.vin VDD VDD sg13_lv_pmos ad=0.57p pd=3.38u as=0.57p ps=3.38u w=3u l=0.13u
X63 iqmod_mixer_pex_half_1.iqmod_mixer_pex_se2diff_0.iqmod_mixer_pex_se2diff_half_inv$1_0.iqmod_mixer_pex_se2diff_inv_NF6$5_1.vout iqmod_mixer_pex_half_1.iqmod_mixer_pex_se2diff_0.iqmod_mixer_pex_se2diff_half_inv$1_0.iqmod_mixer_pex_se2diff_inv_NF6$5_2.vout VSS VSS sg13_lv_nmos ad=0.19p pd=1.38u as=0.19p ps=1.38u w=1u l=0.13u
X64 voutp_RF iqmod_mixer_pex_half_1.iqmod_mixer_pex_tg_0.di_tg_ctrl_n vinp_IF VDD sg13_lv_pmos ad=1.71p pd=9.38u as=1.71p ps=9.38u w=9u l=0.13u
X65 VSS iqmod_mixer_pex_half_0.iqmod_mixer_pex_se2diff_0.iqmod_mixer_pex_se2diff_half_inv$1_0.iqmod_mixer_pex_se2diff_inv_NF18$5_0.vout iqmod_mixer_pex_half_0.iqmod_mixer_pex_tg_0.di_tg_ctrl VSS sg13_lv_nmos ad=0.19p pd=1.38u as=0.19p ps=1.38u w=1u l=0.13u
X66 VSS iqmod_mixer_pex_half_0.iqmod_mixer_pex_se2diff_0.iqmod_mixer_pex_se2diff_half_inv$1_0.iqmod_mixer_pex_se2diff_inv_NF18$5_0.vout iqmod_mixer_pex_half_0.iqmod_mixer_pex_tg_0.di_tg_ctrl VSS sg13_lv_nmos ad=0.19p pd=1.38u as=0.19p ps=1.38u w=1u l=0.13u
X67 VSS iqmod_mixer_pex_half_0.iqmod_mixer_pex_se2diff_0.iqmod_mixer_pex_se2diff_half_inv$1_0.iqmod_mixer_pex_se2diff_inv_NF18$5_0.vout iqmod_mixer_pex_half_0.iqmod_mixer_pex_tg_0.di_tg_ctrl VSS sg13_lv_nmos ad=0.19p pd=1.38u as=0.19p ps=1.38u w=1u l=0.13u
X68 iqmod_mixer_pex_half_0.iqmod_mixer_pex_se2diff_0.iqmod_mixer_pex_se2diff_half_inv$1_0.iqmod_mixer_pex_se2diff_inv_NF18$5_0.vout iqmod_mixer_pex_half_0.iqmod_mixer_pex_se2diff_0.iqmod_mixer_pex_se2diff_half_inv$1_0.iqmod_mixer_pex_se2diff_inv_NF6$5_1.vout VSS VSS sg13_lv_nmos ad=0.19p pd=1.38u as=0.19p ps=1.38u w=1u l=0.13u
X69 VDD iqmod_mixer_pex_half_1.iqmod_mixer_pex_se2diff_0.iqmod_mixer_pex_se2diff_half_tg$1_0.iqmod_mixer_pex_se2diff_tg_NF6$2_0.v_b iqmod_mixer_pex_half_1.iqmod_mixer_pex_se2diff_0.iqmod_mixer_pex_se2diff_half_inv$1_0.iqmod_mixer_pex_se2diff_inv_NF2$5_1.vout VDD sg13_lv_pmos ad=0.57p pd=3.38u as=0.57p ps=3.38u w=3u l=0.13u
X70 VDD VDD VDD VDD sg13_lv_pmos ad=1.02p pd=6.68u as=0 ps=0 w=3u l=0.13u
X71 VDD iqmod_mixer_pex_half_0.iqmod_mixer_pex_se2diff_0.iqmod_mixer_pex_se2diff_half_tg$1_0.iqmod_mixer_pex_se2diff_inv_NF18$4_0.vout iqmod_mixer_pex_half_0.iqmod_mixer_pex_tg_0.di_tg_ctrl_n VDD sg13_lv_pmos ad=0.57p pd=3.38u as=0.57p ps=3.38u w=3u l=0.13u
X72 VSS iqmod_mixer_pex_half_1.iqmod_mixer_pex_se2diff_0.iqmod_mixer_pex_se2diff_half_inv$1_0.iqmod_mixer_pex_se2diff_inv_NF6$5_2.vout iqmod_mixer_pex_half_1.iqmod_mixer_pex_se2diff_0.iqmod_mixer_pex_se2diff_half_inv$1_0.iqmod_mixer_pex_se2diff_inv_NF6$5_1.vout VSS sg13_lv_nmos ad=0.19p pd=1.38u as=0.19p ps=1.38u w=1u l=0.13u
X73 iqmod_mixer_pex_half_1.iqmod_mixer_pex_tg_0.di_tg_ctrl iqmod_mixer_pex_half_1.iqmod_mixer_pex_se2diff_0.iqmod_mixer_pex_se2diff_half_inv$1_0.iqmod_mixer_pex_se2diff_inv_NF18$5_0.vout VDD VDD sg13_lv_pmos ad=0.57p pd=3.38u as=0.57p ps=3.38u w=3u l=0.13u
X74 VSS iqmod_mixer_pex_half_1.iqmod_mixer_pex_se2diff_0.iqmod_mixer_pex_se2diff_half_tg$1_0.iqmod_mixer_pex_se2diff_inv_NF6$4_0.vout iqmod_mixer_pex_half_1.iqmod_mixer_pex_se2diff_0.iqmod_mixer_pex_se2diff_half_tg$1_0.iqmod_mixer_pex_se2diff_inv_NF18$4_0.vout VSS sg13_lv_nmos ad=0.19p pd=1.38u as=0.19p ps=1.38u w=1u l=0.13u
X75 VDD iqmod_mixer_pex_half_1.iqmod_mixer_pex_se2diff_0.iqmod_mixer_pex_se2diff_half_tg$1_0.iqmod_mixer_pex_se2diff_inv_NF6$4_0.vout iqmod_mixer_pex_half_1.iqmod_mixer_pex_se2diff_0.iqmod_mixer_pex_se2diff_half_tg$1_0.iqmod_mixer_pex_se2diff_inv_NF18$4_0.vout VDD sg13_lv_pmos ad=0.57p pd=3.38u as=0.57p ps=3.38u w=3u l=0.13u
X76 iqmod_mixer_pex_half_1.iqmod_mixer_pex_tg_0.di_tg_ctrl iqmod_mixer_pex_half_1.iqmod_mixer_pex_se2diff_0.iqmod_mixer_pex_se2diff_half_inv$1_0.iqmod_mixer_pex_se2diff_inv_NF18$5_0.vout VDD VDD sg13_lv_pmos ad=0.57p pd=3.38u as=0.57p ps=3.38u w=3u l=0.13u
X77 voutp_RF iqmod_mixer_pex_half_1.iqmod_mixer_pex_tg_0.di_tg_ctrl vinp_IF VSS sg13_lv_nmos ad=0.57p pd=3.38u as=0.57p ps=3.38u w=3u l=0.13u
X78 VSS VSS VSS VSS sg13_lv_nmos ad=0.34p pd=2.68u as=0.98653n ps=1.83112m w=1u l=0.13u
X79 iqmod_mixer_pex_half_0.iqmod_mixer_pex_se2diff_0.iqmod_mixer_pex_se2diff_half_inv$1_0.iqmod_mixer_pex_se2diff_inv_NF18$5_0.vout iqmod_mixer_pex_half_0.iqmod_mixer_pex_se2diff_0.iqmod_mixer_pex_se2diff_half_inv$1_0.iqmod_mixer_pex_se2diff_inv_NF6$5_1.vout VSS VSS sg13_lv_nmos ad=0.19p pd=1.38u as=0.19p ps=1.38u w=1u l=0.13u
X80 VDD iqmod_mixer_pex_half_1.iqmod_mixer_pex_se2diff_0.iqmod_mixer_pex_se2diff_half_inv$1_0.iqmod_mixer_pex_se2diff_inv_NF18$5_0.vout iqmod_mixer_pex_half_1.iqmod_mixer_pex_tg_0.di_tg_ctrl VDD sg13_lv_pmos ad=0.57p pd=3.38u as=0.57p ps=3.38u w=3u l=0.13u
X81 iqmod_mixer_pex_half_1.iqmod_mixer_pex_se2diff_0.iqmod_mixer_pex_se2diff_half_tg$1_0.iqmod_mixer_pex_se2diff_inv_NF18$4_0.vout iqmod_mixer_pex_half_1.iqmod_mixer_pex_se2diff_0.iqmod_mixer_pex_se2diff_half_tg$1_0.iqmod_mixer_pex_se2diff_inv_NF6$4_0.vout VDD VDD sg13_lv_pmos ad=0.57p pd=3.38u as=0.57p ps=3.38u w=3u l=0.13u
X82 VSS iqmod_mixer_pex_half_0.iqmod_mixer_pex_se2diff_0.iqmod_mixer_pex_se2diff_half_inv$1_0.iqmod_mixer_pex_se2diff_inv_NF18$5_0.vout iqmod_mixer_pex_half_0.iqmod_mixer_pex_tg_0.di_tg_ctrl VSS sg13_lv_nmos ad=0.19p pd=1.38u as=0.19p ps=1.38u w=1u l=0.13u
X83 VSS iqmod_mixer_pex_half_0.iqmod_mixer_pex_se2diff_0.iqmod_mixer_pex_se2diff_half_inv$1_0.iqmod_mixer_pex_se2diff_inv_NF6$5_2.vout iqmod_mixer_pex_half_0.iqmod_mixer_pex_se2diff_0.iqmod_mixer_pex_se2diff_half_inv$1_0.iqmod_mixer_pex_se2diff_inv_NF6$5_1.vout VSS sg13_lv_nmos ad=0.19p pd=1.38u as=0.19p ps=1.38u w=1u l=0.13u
X84 iqmod_mixer_pex_half_1.iqmod_mixer_pex_se2diff_0.iqmod_mixer_pex_se2diff_half_tg$1_0.iqmod_mixer_pex_se2diff_inv_NF18$4_0.vout iqmod_mixer_pex_half_1.iqmod_mixer_pex_se2diff_0.iqmod_mixer_pex_se2diff_half_tg$1_0.iqmod_mixer_pex_se2diff_inv_NF6$4_0.vout VSS VSS sg13_lv_nmos ad=0.19p pd=1.38u as=0.19p ps=1.38u w=1u l=0.13u
X85 vinp_IF iqmod_mixer_pex_half_1.iqmod_mixer_pex_tg_0.di_tg_ctrl voutp_RF VSS sg13_lv_nmos ad=0.57p pd=3.38u as=0.57p ps=3.38u w=3u l=0.13u
X86 VSS iqmod_mixer_pex_half_1.iqmod_mixer_pex_se2diff_0.iqmod_mixer_pex_se2diff_half_tg$1_0.iqmod_mixer_pex_se2diff_inv_NF18$4_0.vout iqmod_mixer_pex_half_1.iqmod_mixer_pex_tg_0.di_tg_ctrl_n VSS sg13_lv_nmos ad=0.19p pd=1.38u as=0.19p ps=1.38u w=1u l=0.13u
X87 VDD iqmod_mixer_pex_half_1.iqmod_mixer_pex_se2diff_0.iqmod_mixer_pex_se2diff_half_tg$1_0.iqmod_mixer_pex_se2diff_inv_NF18$4_0.vout iqmod_mixer_pex_half_1.iqmod_mixer_pex_tg_0.di_tg_ctrl_n VDD sg13_lv_pmos ad=0.57p pd=3.38u as=0.57p ps=3.38u w=3u l=0.13u
X88 iqmod_mixer_pex_half_1.iqmod_mixer_pex_se2diff_0.iqmod_mixer_pex_se2diff_half_inv$1_0.iqmod_mixer_pex_se2diff_inv_NF6$5_2.vin iqmod_mixer_pex_half_1.iqmod_mixer_pex_se2diff_0.iqmod_mixer_pex_se2diff_half_inv$1_0.iqmod_mixer_pex_se2diff_inv_NF2$5_0.vout VSS VSS sg13_lv_nmos ad=0.19p pd=1.38u as=0.19p ps=1.38u w=1u l=0.13u
X89 iqmod_mixer_pex_half_1.iqmod_mixer_pex_tg_0.di_tg_ctrl_n iqmod_mixer_pex_half_1.iqmod_mixer_pex_se2diff_0.iqmod_mixer_pex_se2diff_half_tg$1_0.iqmod_mixer_pex_se2diff_inv_NF18$4_0.vout VDD VDD sg13_lv_pmos ad=0.57p pd=3.38u as=0.57p ps=3.38u w=3u l=0.13u
X90 VSS iqmod_mixer_pex_half_0.iqmod_mixer_pex_se2diff_0.iqmod_mixer_pex_se2diff_half_inv$1_0.iqmod_mixer_pex_se2diff_inv_NF18$5_0.vout iqmod_mixer_pex_half_0.iqmod_mixer_pex_tg_0.di_tg_ctrl VSS sg13_lv_nmos ad=0.19p pd=1.38u as=0.19p ps=1.38u w=1u l=0.13u
X91 iqmod_mixer_pex_half_1.iqmod_mixer_pex_tg_0.di_tg_ctrl_n iqmod_mixer_pex_half_1.iqmod_mixer_pex_se2diff_0.iqmod_mixer_pex_se2diff_half_tg$1_0.iqmod_mixer_pex_se2diff_inv_NF18$4_0.vout VSS VSS sg13_lv_nmos ad=0.19p pd=1.38u as=0.19p ps=1.38u w=1u l=0.13u
X92 VDD iqmod_mixer_pex_half_0.iqmod_mixer_pex_se2diff_0.iqmod_mixer_pex_se2diff_half_inv$1_0.iqmod_mixer_pex_se2diff_inv_NF2$5_0.vout iqmod_mixer_pex_half_0.iqmod_mixer_pex_se2diff_0.iqmod_mixer_pex_se2diff_half_inv$1_0.iqmod_mixer_pex_se2diff_inv_NF6$5_2.vin VDD sg13_lv_pmos ad=0.57p pd=3.38u as=0.57p ps=3.38u w=3u l=0.13u
X93 VSS iqmod_mixer_pex_half_1.iqmod_mixer_pex_se2diff_0.iqmod_mixer_pex_se2diff_half_inv$1_0.iqmod_mixer_pex_se2diff_inv_NF2$5_0.vout iqmod_mixer_pex_half_1.iqmod_mixer_pex_se2diff_0.iqmod_mixer_pex_se2diff_half_inv$1_0.iqmod_mixer_pex_se2diff_inv_NF6$5_2.vin VSS sg13_lv_nmos ad=0.19p pd=1.38u as=0.19p ps=1.38u w=1u l=0.13u
X94 VDD iqmod_mixer_pex_half_0.iqmod_mixer_pex_se2diff_0.iqmod_mixer_pex_se2diff_half_tg$1_0.iqmod_mixer_pex_se2diff_tg_NF6$2_0.v_b iqmod_mixer_pex_half_0.iqmod_mixer_pex_se2diff_0.iqmod_mixer_pex_se2diff_half_inv$1_0.iqmod_mixer_pex_se2diff_inv_NF2$5_1.vout VDD sg13_lv_pmos ad=0.57p pd=3.38u as=0.57p ps=3.38u w=3u l=0.13u
X95 VDD VDD VDD VDD sg13_lv_pmos ad=1.02p pd=6.68u as=0 ps=0 w=3u l=0.13u
X96 iqmod_mixer_pex_half_1.iqmod_mixer_pex_tg_0.di_tg_ctrl iqmod_mixer_pex_half_1.iqmod_mixer_pex_se2diff_0.iqmod_mixer_pex_se2diff_half_inv$1_0.iqmod_mixer_pex_se2diff_inv_NF18$5_0.vout VSS VSS sg13_lv_nmos ad=0.19p pd=1.38u as=0.19p ps=1.38u w=1u l=0.13u
X97 VSS VSS VSS VSS sg13_lv_nmos ad=0.34p pd=2.68u as=0 ps=0 w=1u l=0.13u
X98 iqmod_mixer_pex_half_0.iqmod_mixer_pex_se2diff_0.iqmod_mixer_pex_se2diff_half_tg$1_0.iqmod_mixer_pex_se2diff_tg_NF6$2_0.v_b VSS iqmod_mixer_pex_half_0.iqmod_mixer_pex_se2diff_0.iqmod_mixer_pex_se2diff_half_inv$1_0.iqmod_mixer_pex_se2diff_inv_NF2$5_0.vout VDD sg13_lv_pmos ad=0.57p pd=3.38u as=0.57p ps=3.38u w=3u l=0.13u
X99 iqmod_mixer_pex_half_0.iqmod_mixer_pex_se2diff_0.iqmod_mixer_pex_se2diff_half_inv$1_0.iqmod_mixer_pex_se2diff_inv_NF2$5_0.vout vinn_LO VSS VSS sg13_lv_nmos ad=0.19p pd=1.38u as=0.19p ps=1.38u w=1u l=0.13u
X100 voutn_RF iqmod_mixer_pex_half_0.iqmod_mixer_pex_tg_0.di_tg_ctrl voutn_RF VDD sg13_lv_pmos ad=1.71p pd=9.38u as=0 ps=0 w=9u l=0.13u
X101 iqmod_mixer_pex_half_0.iqmod_mixer_pex_tg_0.di_tg_ctrl_n iqmod_mixer_pex_half_0.iqmod_mixer_pex_se2diff_0.iqmod_mixer_pex_se2diff_half_tg$1_0.iqmod_mixer_pex_se2diff_inv_NF18$4_0.vout VSS VSS sg13_lv_nmos ad=0.19p pd=1.38u as=0.19p ps=1.38u w=1u l=0.13u
X102 iqmod_mixer_pex_half_0.iqmod_mixer_pex_tg_0.di_tg_ctrl_n iqmod_mixer_pex_half_0.iqmod_mixer_pex_se2diff_0.iqmod_mixer_pex_se2diff_half_tg$1_0.iqmod_mixer_pex_se2diff_inv_NF18$4_0.vout VSS VSS sg13_lv_nmos ad=0.19p pd=1.38u as=0.19p ps=1.38u w=1u l=0.13u
X103 iqmod_mixer_pex_half_1.iqmod_mixer_pex_tg_0.di_tg_ctrl iqmod_mixer_pex_half_1.iqmod_mixer_pex_se2diff_0.iqmod_mixer_pex_se2diff_half_inv$1_0.iqmod_mixer_pex_se2diff_inv_NF18$5_0.vout VSS VSS sg13_lv_nmos ad=0.19p pd=1.38u as=0.19p ps=1.38u w=1u l=0.13u
X104 vinp_IF iqmod_mixer_pex_half_1.iqmod_mixer_pex_tg_0.di_tg_ctrl voutp_RF VSS sg13_lv_nmos ad=0.57p pd=3.38u as=0.57p ps=3.38u w=3u l=0.13u
X105 VSS iqmod_mixer_pex_half_1.iqmod_mixer_pex_se2diff_0.iqmod_mixer_pex_se2diff_half_inv$1_0.iqmod_mixer_pex_se2diff_inv_NF18$5_0.vout iqmod_mixer_pex_half_1.iqmod_mixer_pex_tg_0.di_tg_ctrl VSS sg13_lv_nmos ad=0.19p pd=1.38u as=0.19p ps=1.38u w=1u l=0.13u
X106 VDD VDD VDD VDD sg13_lv_pmos ad=1.02p pd=6.68u as=0 ps=0 w=3u l=0.13u
X107 vinn_IF iqmod_mixer_pex_half_0.iqmod_mixer_pex_tg_0.di_tg_ctrl_n voutn_RF VDD sg13_lv_pmos ad=1.71p pd=9.38u as=1.71p ps=9.38u w=9u l=0.13u
X108 VSS iqmod_mixer_pex_half_0.iqmod_mixer_pex_se2diff_0.iqmod_mixer_pex_se2diff_half_inv$1_0.iqmod_mixer_pex_se2diff_inv_NF6$5_2.vin iqmod_mixer_pex_half_0.iqmod_mixer_pex_se2diff_0.iqmod_mixer_pex_se2diff_half_inv$1_0.iqmod_mixer_pex_se2diff_inv_NF6$5_2.vout VSS sg13_lv_nmos ad=0.19p pd=1.38u as=0.19p ps=1.38u w=1u l=0.13u
X109 VSS VSS VSS VSS sg13_lv_nmos ad=0.19p pd=1.38u as=0 ps=0 w=1u l=0.13u
X110 VDD iqmod_mixer_pex_half_1.iqmod_mixer_pex_se2diff_0.iqmod_mixer_pex_se2diff_half_tg$1_0.iqmod_mixer_pex_se2diff_inv_NF18$4_0.vout iqmod_mixer_pex_half_1.iqmod_mixer_pex_tg_0.di_tg_ctrl_n VDD sg13_lv_pmos ad=0.57p pd=3.38u as=0.57p ps=3.38u w=3u l=0.13u
X111 iqmod_mixer_pex_half_0.iqmod_mixer_pex_se2diff_0.iqmod_mixer_pex_se2diff_half_tg$1_0.iqmod_mixer_pex_se2diff_tg_NF6$2_0.v_b VSS iqmod_mixer_pex_half_0.iqmod_mixer_pex_se2diff_0.iqmod_mixer_pex_se2diff_half_inv$1_0.iqmod_mixer_pex_se2diff_inv_NF2$5_0.vout VDD sg13_lv_pmos ad=0.57p pd=3.38u as=1.02p ps=6.68u w=3u l=0.13u
X112 iqmod_mixer_pex_half_1.iqmod_mixer_pex_tg_0.di_tg_ctrl_n iqmod_mixer_pex_half_1.iqmod_mixer_pex_se2diff_0.iqmod_mixer_pex_se2diff_half_tg$1_0.iqmod_mixer_pex_se2diff_inv_NF18$4_0.vout VDD VDD sg13_lv_pmos ad=0.57p pd=3.38u as=0.57p ps=3.38u w=3u l=0.13u
X113 VSS iqmod_mixer_pex_half_0.iqmod_mixer_pex_se2diff_0.iqmod_mixer_pex_se2diff_half_tg$1_0.iqmod_mixer_pex_se2diff_inv_NF6$4_0.vout iqmod_mixer_pex_half_0.iqmod_mixer_pex_se2diff_0.iqmod_mixer_pex_se2diff_half_tg$1_0.iqmod_mixer_pex_se2diff_inv_NF18$4_0.vout VSS sg13_lv_nmos ad=0.19p pd=1.38u as=0.19p ps=1.38u w=1u l=0.13u
X114 voutn_RF iqmod_mixer_pex_half_0.iqmod_mixer_pex_tg_0.di_tg_ctrl voutn_RF VDD sg13_lv_pmos ad=1.71p pd=9.38u as=0 ps=0 w=9u l=0.13u
X115 iqmod_mixer_pex_half_0.iqmod_mixer_pex_tg_0.di_tg_ctrl_n iqmod_mixer_pex_half_0.iqmod_mixer_pex_se2diff_0.iqmod_mixer_pex_se2diff_half_tg$1_0.iqmod_mixer_pex_se2diff_inv_NF18$4_0.vout VSS VSS sg13_lv_nmos ad=0.19p pd=1.38u as=0.19p ps=1.38u w=1u l=0.13u
X116 iqmod_mixer_pex_half_1.iqmod_mixer_pex_se2diff_0.iqmod_mixer_pex_se2diff_half_inv$1_0.iqmod_mixer_pex_se2diff_inv_NF18$5_0.vout iqmod_mixer_pex_half_1.iqmod_mixer_pex_se2diff_0.iqmod_mixer_pex_se2diff_half_inv$1_0.iqmod_mixer_pex_se2diff_inv_NF6$5_1.vout VDD VDD sg13_lv_pmos ad=0.57p pd=3.38u as=0.57p ps=3.38u w=3u l=0.13u
X117 iqmod_mixer_pex_half_0.iqmod_mixer_pex_se2diff_0.iqmod_mixer_pex_se2diff_half_inv$1_0.iqmod_mixer_pex_se2diff_inv_NF2$5_1.vout iqmod_mixer_pex_half_0.iqmod_mixer_pex_se2diff_0.iqmod_mixer_pex_se2diff_half_inv$1_0.iqmod_mixer_pex_se2diff_inv_NF6$5_2.vout VSS VSS sg13_lv_nmos ad=0.19p pd=1.38u as=0.19p ps=1.38u w=1u l=0.13u
X118 vinn_IF iqmod_mixer_pex_half_0.iqmod_mixer_pex_tg_0.di_tg_ctrl_n voutn_RF VDD sg13_lv_pmos ad=1.71p pd=9.38u as=1.71p ps=9.38u w=9u l=0.13u