* PEX produced on Sat Mar 28 08:15:50 PM CET 2026 using /foss/tools/sak/sak-pex.sh with m=1 and s=1
* NGSPICE file created from iqmod_mfb_lpf_ota_core_hybrid_bm_pex.ext - technology: ihp-sg13g2

.subckt iqmod_mfb_lpf_ota_core_hybrid_bm_pex VSS VDD vinp vinn voutn voutp
+ di_ota_en
X0 iqmod_mfb_lpf_ota_core_hybrid_bm_pex_half_1.iqmod_mfb_lpf_ota_core_inv_NF6_2.vin iqmod_mfb_lpf_ota_core_hybrid_bm_pex_half_0.iqmod_mfb_lpf_ota_core_spdt_switch_0.do_spdt_ctrl_n iqmod_mfb_lpf_ota_core_hybrid_bm_pex_half_1.iqmod_mfb_lpf_ota_core_tg_1.v_a VDD sg13_lv_pmos ad=1.14p pd=6.38u as=1.14p ps=6.38u w=6u l=0.13u
X1 VSS VSS VSS VSS sg13_lv_nmos ad=0.34p pd=2.68u as=1.04613n ps=1.5458m w=1u l=0.13u
X2 iqmod_mfb_lpf_ota_core_hybrid_bm_pex_half_1.iqmod_mfb_lpf_ota_core_inv_NF10_0.vout iqmod_mfb_lpf_ota_core_hybrid_bm_pex_half_0.iqmod_mfb_lpf_ota_core_inv_NF10_0.vin VSS VSS sg13_lv_nmos ad=0.19p pd=1.38u as=0.19p ps=1.38u w=1u l=1u
X3 iqmod_mfb_lpf_ota_core_hybrid_bm_pex_half_1.iqmod_mfb_lpf_ota_core_tg_1.v_a voutp VSS VSS sg13_lv_nmos ad=0.19p pd=1.38u as=0.19p ps=1.38u w=1u l=1u
X4 VSS iqmod_mfb_lpf_ota_core_hybrid_bm_pex_half_0.iqmod_mfb_lpf_ota_core_inv_NF10_0.vin voutp VSS sg13_lv_nmos ad=0.19p pd=1.38u as=0.19p ps=1.38u w=1u l=1u
X5 iqmod_mfb_lpf_ota_core_hybrid_bm_pex_half_1.iqmod_mfb_lpf_ota_core_inv_NF6_2.vin di_ota_en iqmod_mfb_lpf_ota_core_hybrid_bm_pex_half_1.iqmod_mfb_lpf_ota_core_tg_1.v_a VSS sg13_lv_nmos ad=0.19p pd=1.38u as=0.19p ps=1.38u w=1u l=0.13u
X6 VDD VDD VDD VDD sg13_lv_pmos ad=1.14p pd=6.38u as=1.62466n ps=3.23532m w=6u l=1u
X7 iqmod_mfb_lpf_ota_core_hybrid_bm_pex_half_1.iqmod_mfb_lpf_ota_core_tg_1.v_a voutn VSS VSS sg13_lv_nmos ad=0.19p pd=1.38u as=0.19p ps=1.38u w=1u l=1u
X8 VSS voutp iqmod_mfb_lpf_ota_core_hybrid_bm_pex_half_1.iqmod_mfb_lpf_ota_core_tg_1.v_a VSS sg13_lv_nmos ad=0.19p pd=1.38u as=0.19p ps=1.38u w=1u l=1u
X9 voutp iqmod_mfb_lpf_ota_core_hybrid_bm_pex_half_0.iqmod_mfb_lpf_ota_core_inv_NF10_0.vin VSS VSS sg13_lv_nmos ad=0.19p pd=1.38u as=0.19p ps=1.38u w=1u l=1u
X10 VSS iqmod_mfb_lpf_ota_core_hybrid_bm_pex_half_0.iqmod_mfb_lpf_ota_core_inv_NF10_0.vin iqmod_mfb_lpf_ota_core_hybrid_bm_pex_half_1.iqmod_mfb_lpf_ota_core_inv_NF10_0.vout VSS sg13_lv_nmos ad=0.19p pd=1.38u as=0.19p ps=1.38u w=1u l=1u
X11 iqmod_mfb_lpf_ota_core_hybrid_bm_pex_half_1.iqmod_mfb_lpf_ota_core_inv_NF10_0.vout iqmod_mfb_lpf_ota_core_hybrid_bm_pex_half_0.iqmod_mfb_lpf_ota_core_inv_NF10_0.vin VSS VSS sg13_lv_nmos ad=0.19p pd=1.38u as=0.19p ps=1.38u w=1u l=1u
X12 VDD iqmod_mfb_lpf_ota_core_hybrid_bm_pex_half_0.iqmod_mfb_lpf_ota_core_inv_NF10_0.vin voutp VDD sg13_lv_pmos ad=1.14p pd=6.38u as=1.14p ps=6.38u w=6u l=1u
X13 VSS VSS VSS VSS sg13_lv_nmos ad=0.34p pd=2.68u as=0 ps=0 w=1u l=1u
X14 voutn iqmod_mfb_lpf_ota_core_hybrid_bm_pex_half_1.iqmod_mfb_lpf_ota_core_inv_NF10_0.vin VDD VDD sg13_lv_pmos ad=1.14p pd=6.38u as=1.14p ps=6.38u w=6u l=1u
X15 VDD iqmod_mfb_lpf_ota_core_hybrid_bm_pex_half_0.iqmod_mfb_lpf_ota_core_inv_NF10_0.vin iqmod_mfb_lpf_ota_core_hybrid_bm_pex_half_1.iqmod_mfb_lpf_ota_core_inv_NF10_0.vout VDD sg13_lv_pmos ad=1.14p pd=6.38u as=1.14p ps=6.38u w=6u l=1u
X16 VDD VDD VDD VDD sg13_lv_pmos ad=1.14p pd=6.38u as=0 ps=0 w=6u l=1u
X17 iqmod_mfb_lpf_ota_core_hybrid_bm_pex_half_1.iqmod_mfb_lpf_ota_core_inv_NF10_0.vout iqmod_mfb_lpf_ota_core_hybrid_bm_pex_half_1.iqmod_mfb_lpf_ota_core_inv_NF10_0.vin VDD VDD sg13_lv_pmos ad=1.14p pd=6.38u as=1.14p ps=6.38u w=6u l=1u
X18 VDD iqmod_mfb_lpf_ota_core_hybrid_bm_pex_half_1.iqmod_mfb_lpf_ota_core_inv_NF10_0.vin voutn VDD sg13_lv_pmos ad=1.14p pd=6.38u as=1.14p ps=6.38u w=6u l=1u
X19 voutp iqmod_mfb_lpf_ota_core_hybrid_bm_pex_half_0.iqmod_mfb_lpf_ota_core_inv_NF10_0.vin VDD VDD sg13_lv_pmos ad=1.14p pd=6.38u as=1.14p ps=6.38u w=6u l=1u
X20 VDD VDD VDD VDD sg13_lv_pmos ad=1.14p pd=6.38u as=0 ps=0 w=6u l=0.13u
X21 iqmod_mfb_lpf_ota_core_hybrid_bm_pex_half_1.iqmod_mfb_lpf_ota_core_inv_NF10_0.vout iqmod_mfb_lpf_ota_core_hybrid_bm_pex_half_0.iqmod_mfb_lpf_ota_core_inv_NF10_0.vin VDD VDD sg13_lv_pmos ad=1.14p pd=6.38u as=1.14p ps=6.38u w=6u l=1u
X22 VDD VDD VDD VDD sg13_lv_pmos ad=1.14p pd=6.38u as=0 ps=0 w=6u l=1u
X23 VSS iqmod_mfb_lpf_ota_core_hybrid_bm_pex_half_1.iqmod_mfb_lpf_ota_core_inv_NF6_0.vout voutn VSS sg13_lv_nmos ad=0.19p pd=1.38u as=0.19p ps=1.38u w=1u l=1u
X24 VSS VSS VSS VSS sg13_lv_nmos ad=0.19p pd=1.38u as=0 ps=0 w=1u l=1u
X25 iqmod_mfb_lpf_ota_core_hybrid_bm_pex_half_1.iqmod_mfb_lpf_ota_core_spdt_switch_0.iqmod_mfb_lpf_ota_core_spdt_switch_inv$1_0.vout iqmod_mfb_lpf_ota_core_hybrid_bm_pex_half_1.iqmod_mfb_lpf_ota_core_spdt_switch_0.do_spdt_ctrl_n VDD VDD sg13_lv_pmos ad=1.14p pd=6.38u as=1.14p ps=6.38u w=6u l=0.13u
X26 iqmod_mfb_lpf_ota_core_hybrid_bm_pex_half_1.iqmod_mfb_lpf_ota_core_inv_NF10_0.vin iqmod_mfb_lpf_ota_core_hybrid_bm_pex_half_1.iqmod_mfb_lpf_ota_core_spdt_switch_0.do_spdt_ctrl_n vinp VDD sg13_lv_pmos ad=1.14p pd=6.38u as=2.04p ps=12.68u w=6u l=0.13u
X27 VDD iqmod_mfb_lpf_ota_core_hybrid_bm_pex_half_1.iqmod_mfb_lpf_ota_core_spdt_switch_0.do_spdt_ctrl_n iqmod_mfb_lpf_ota_core_hybrid_bm_pex_half_1.iqmod_mfb_lpf_ota_core_inv_NF10_0.vin VSS sg13_lv_nmos ad=0.19p pd=1.38u as=0.19p ps=1.38u w=1u l=0.13u
X28 VSS VSS VSS VSS sg13_lv_nmos ad=0.19p pd=1.38u as=0 ps=0 w=1u l=0.13u
X29 iqmod_mfb_lpf_ota_core_hybrid_bm_pex_half_1.iqmod_mfb_lpf_ota_core_spdt_switch_0.iqmod_mfb_lpf_ota_core_spdt_switch_inv$1_0.vout iqmod_mfb_lpf_ota_core_hybrid_bm_pex_half_1.iqmod_mfb_lpf_ota_core_spdt_switch_0.do_spdt_ctrl_n VSS VSS sg13_lv_nmos ad=0.19p pd=1.38u as=0.19p ps=1.38u w=1u l=0.13u
X30 iqmod_mfb_lpf_ota_core_hybrid_bm_pex_half_1.iqmod_mfb_lpf_ota_core_inv_NF6_2.vin iqmod_mfb_lpf_ota_core_hybrid_bm_pex_half_0.iqmod_mfb_lpf_ota_core_spdt_switch_0.do_spdt_ctrl_n iqmod_mfb_lpf_ota_core_hybrid_bm_pex_half_1.iqmod_mfb_lpf_ota_core_tg_1.v_a VDD sg13_lv_pmos ad=1.14p pd=6.38u as=2.04p ps=12.68u w=6u l=0.13u
X31 iqmod_mfb_lpf_ota_core_hybrid_bm_pex_half_1.iqmod_mfb_lpf_ota_core_inv_NF6_2.vin iqmod_mfb_lpf_ota_core_hybrid_bm_pex_half_1.iqmod_mfb_lpf_ota_core_tg_1.v_a VSS VSS sg13_lv_nmos ad=0.19p pd=1.38u as=0.19p ps=1.38u w=1u l=1u
X32 iqmod_mfb_lpf_ota_core_hybrid_bm_pex_half_1.iqmod_mfb_lpf_ota_core_tg_1.v_a di_ota_en iqmod_mfb_lpf_ota_core_hybrid_bm_pex_half_1.iqmod_mfb_lpf_ota_core_inv_NF6_2.vin VSS sg13_lv_nmos ad=0.19p pd=1.38u as=0.19p ps=1.38u w=1u l=0.13u
X33 VSS VSS VSS VSS sg13_lv_nmos ad=0.19p pd=1.38u as=0 ps=0 w=1u l=1u
X34 iqmod_mfb_lpf_ota_core_hybrid_bm_pex_half_1.iqmod_mfb_lpf_ota_core_inv_NF6_0.vout iqmod_mfb_lpf_ota_core_hybrid_bm_pex_half_1.iqmod_mfb_lpf_ota_core_inv_NF10_0.vout VDD VDD sg13_lv_pmos ad=1.14p pd=6.38u as=1.14p ps=6.38u w=6u l=1u
X35 VSS voutn iqmod_mfb_lpf_ota_core_hybrid_bm_pex_half_1.iqmod_mfb_lpf_ota_core_tg_1.v_a VSS sg13_lv_nmos ad=0.19p pd=1.38u as=0.19p ps=1.38u w=1u l=1u
X36 iqmod_mfb_lpf_ota_core_hybrid_bm_pex_half_1.iqmod_mfb_lpf_ota_core_inv_NF6_0.vout iqmod_mfb_lpf_ota_core_hybrid_bm_pex_half_1.iqmod_mfb_lpf_ota_core_inv_NF10_0.vout VDD VDD sg13_lv_pmos ad=1.14p pd=6.38u as=1.14p ps=6.38u w=6u l=1u
X37 VSS iqmod_mfb_lpf_ota_core_hybrid_bm_pex_half_1.iqmod_mfb_lpf_ota_core_tg_1.v_a iqmod_mfb_lpf_ota_core_hybrid_bm_pex_half_1.iqmod_mfb_lpf_ota_core_inv_NF6_2.vin VSS sg13_lv_nmos ad=0.19p pd=1.38u as=0.19p ps=1.38u w=1u l=1u
X38 VSS iqmod_mfb_lpf_ota_core_hybrid_bm_pex_half_1.iqmod_mfb_lpf_ota_core_inv_NF6_0.vout voutn VSS sg13_lv_nmos ad=0.19p pd=1.38u as=0.19p ps=1.38u w=1u l=1u
X39 VDD di_ota_en iqmod_mfb_lpf_ota_core_hybrid_bm_pex_half_1.iqmod_mfb_lpf_ota_core_spdt_switch_0.do_spdt_ctrl_n VDD sg13_lv_pmos ad=1.14p pd=6.38u as=1.14p ps=6.38u w=6u l=0.13u
X40 iqmod_mfb_lpf_ota_core_hybrid_bm_pex_half_1.iqmod_mfb_lpf_ota_core_inv_NF6_0.vout iqmod_mfb_lpf_ota_core_hybrid_bm_pex_half_0.iqmod_mfb_lpf_ota_core_spdt_switch_0.do_spdt_ctrl_n iqmod_mfb_lpf_ota_core_hybrid_bm_pex_half_1.iqmod_mfb_lpf_ota_core_inv_NF10_0.vout VDD sg13_lv_pmos ad=1.14p pd=6.38u as=1.14p ps=6.38u w=6u l=0.13u
X41 VDD VDD VDD VDD sg13_lv_pmos ad=2.04p pd=12.68u as=0 ps=0 w=6u l=1u
X42 VSS VSS VSS VSS sg13_lv_nmos ad=0.19p pd=1.38u as=0 ps=0 w=1u l=1u
X43 VDD iqmod_mfb_lpf_ota_core_hybrid_bm_pex_half_1.iqmod_mfb_lpf_ota_core_tg_1.v_a iqmod_mfb_lpf_ota_core_hybrid_bm_pex_half_1.iqmod_mfb_lpf_ota_core_inv_NF6_2.vin VDD sg13_lv_pmos ad=1.14p pd=6.38u as=1.14p ps=6.38u w=6u l=1u
X44 iqmod_mfb_lpf_ota_core_hybrid_bm_pex_half_1.iqmod_mfb_lpf_ota_core_inv_NF6_0.vout iqmod_mfb_lpf_ota_core_hybrid_bm_pex_half_0.iqmod_mfb_lpf_ota_core_spdt_switch_0.do_spdt_ctrl_n iqmod_mfb_lpf_ota_core_hybrid_bm_pex_half_1.iqmod_mfb_lpf_ota_core_inv_NF10_0.vout VDD sg13_lv_pmos ad=1.14p pd=6.38u as=2.04p ps=12.68u w=6u l=0.13u
X45 iqmod_mfb_lpf_ota_core_hybrid_bm_pex_half_1.iqmod_mfb_lpf_ota_core_inv_NF6_2.vin iqmod_mfb_lpf_ota_core_hybrid_bm_pex_half_1.iqmod_mfb_lpf_ota_core_tg_1.v_a VSS VSS sg13_lv_nmos ad=0.19p pd=1.38u as=0.19p ps=1.38u w=1u l=1u
X46 VSS VSS VSS VSS sg13_lv_nmos ad=0.34p pd=2.68u as=0 ps=0 w=1u l=0.13u
X47 iqmod_mfb_lpf_ota_core_hybrid_bm_pex_half_1.iqmod_mfb_lpf_ota_core_inv_NF10_0.vin iqmod_mfb_lpf_ota_core_hybrid_bm_pex_half_1.iqmod_mfb_lpf_ota_core_spdt_switch_0.do_spdt_ctrl_n VDD VSS sg13_lv_nmos ad=0.19p pd=1.38u as=0.19p ps=1.38u w=1u l=0.13u
X48 VDD VDD VDD VDD sg13_lv_pmos ad=2.04p pd=12.68u as=0 ps=0 w=6u l=0.13u
X49 voutp iqmod_mfb_lpf_ota_core_hybrid_bm_pex_half_0.iqmod_mfb_lpf_ota_core_inv_NF10_0.vin VSS VSS sg13_lv_nmos ad=0.19p pd=1.38u as=0.19p ps=1.38u w=1u l=1u
X50 voutn iqmod_mfb_lpf_ota_core_hybrid_bm_pex_half_1.iqmod_mfb_lpf_ota_core_inv_NF6_0.vout VDD VDD sg13_lv_pmos ad=1.14p pd=6.38u as=1.14p ps=6.38u w=6u l=1u
X51 VSS iqmod_mfb_lpf_ota_core_hybrid_bm_pex_half_1.iqmod_mfb_lpf_ota_core_inv_NF10_0.vin voutn VSS sg13_lv_nmos ad=0.19p pd=1.38u as=0.19p ps=1.38u w=1u l=1u
X52 VSS iqmod_mfb_lpf_ota_core_hybrid_bm_pex_half_1.iqmod_mfb_lpf_ota_core_spdt_switch_0.do_spdt_ctrl_n iqmod_mfb_lpf_ota_core_hybrid_bm_pex_half_1.iqmod_mfb_lpf_ota_core_spdt_switch_0.iqmod_mfb_lpf_ota_core_spdt_switch_inv$1_0.vout VSS sg13_lv_nmos ad=0.19p pd=1.38u as=0.19p ps=1.38u w=1u l=0.13u
X53 voutn iqmod_mfb_lpf_ota_core_hybrid_bm_pex_half_1.iqmod_mfb_lpf_ota_core_inv_NF6_0.vout VSS VSS sg13_lv_nmos ad=0.19p pd=1.38u as=0.19p ps=1.38u w=1u l=1u
X54 iqmod_mfb_lpf_ota_core_hybrid_bm_pex_half_1.iqmod_mfb_lpf_ota_core_inv_NF10_0.vout iqmod_mfb_lpf_ota_core_hybrid_bm_pex_half_0.iqmod_mfb_lpf_ota_core_inv_NF10_0.vin VSS VSS sg13_lv_nmos ad=0.19p pd=1.38u as=0.19p ps=1.38u w=1u l=1u
X55 iqmod_mfb_lpf_ota_core_hybrid_bm_pex_half_1.iqmod_mfb_lpf_ota_core_inv_NF6_2.vin di_ota_en iqmod_mfb_lpf_ota_core_hybrid_bm_pex_half_1.iqmod_mfb_lpf_ota_core_tg_1.v_a VSS sg13_lv_nmos ad=0.19p pd=1.38u as=0.19p ps=1.38u w=1u l=0.13u
X56 iqmod_mfb_lpf_ota_core_hybrid_bm_pex_half_1.iqmod_mfb_lpf_ota_core_tg_1.v_a voutp VSS VSS sg13_lv_nmos ad=0.19p pd=1.38u as=0.19p ps=1.38u w=1u l=1u
X57 voutn iqmod_mfb_lpf_ota_core_hybrid_bm_pex_half_1.iqmod_mfb_lpf_ota_core_inv_NF10_0.vin VSS VSS sg13_lv_nmos ad=0.19p pd=1.38u as=0.19p ps=1.38u w=1u l=1u
X58 VDD iqmod_mfb_lpf_ota_core_hybrid_bm_pex_half_1.iqmod_mfb_lpf_ota_core_inv_NF10_0.vin voutn VDD sg13_lv_pmos ad=1.14p pd=6.38u as=1.14p ps=6.38u w=6u l=1u
X59 voutp iqmod_mfb_lpf_ota_core_hybrid_bm_pex_half_1.iqmod_mfb_lpf_ota_core_inv_NF6_0.vout VDD VDD sg13_lv_pmos ad=1.14p pd=6.38u as=1.14p ps=6.38u w=6u l=1u
X60 iqmod_mfb_lpf_ota_core_hybrid_bm_pex_half_1.iqmod_mfb_lpf_ota_core_inv_NF6_0.vout iqmod_mfb_lpf_ota_core_hybrid_bm_pex_half_1.iqmod_mfb_lpf_ota_core_spdt_switch_0.do_spdt_ctrl_n iqmod_mfb_lpf_ota_core_hybrid_bm_pex_half_1.iqmod_mfb_lpf_ota_core_inv_NF10_0.vout VDD sg13_lv_pmos ad=1.14p pd=6.38u as=1.14p ps=6.38u w=6u l=0.13u
X61 VDD voutp iqmod_mfb_lpf_ota_core_hybrid_bm_pex_half_1.iqmod_mfb_lpf_ota_core_tg_1.v_a VDD sg13_lv_pmos ad=1.14p pd=6.38u as=1.14p ps=6.38u w=6u l=1u
X62 VSS iqmod_mfb_lpf_ota_core_hybrid_bm_pex_half_0.iqmod_mfb_lpf_ota_core_inv_NF10_0.vin voutp VSS sg13_lv_nmos ad=0.19p pd=1.38u as=0.19p ps=1.38u w=1u l=1u
X63 iqmod_mfb_lpf_ota_core_hybrid_bm_pex_half_1.iqmod_mfb_lpf_ota_core_tg_1.v_a di_ota_en iqmod_mfb_lpf_ota_core_hybrid_bm_pex_half_1.iqmod_mfb_lpf_ota_core_inv_NF6_2.vin VSS sg13_lv_nmos ad=0.34p pd=2.68u as=0.19p ps=1.38u w=1u l=0.13u
X64 VDD iqmod_mfb_lpf_ota_core_hybrid_bm_pex_half_1.iqmod_mfb_lpf_ota_core_inv_NF10_0.vin iqmod_mfb_lpf_ota_core_hybrid_bm_pex_half_1.iqmod_mfb_lpf_ota_core_inv_NF10_0.vout VDD sg13_lv_pmos ad=1.14p pd=6.38u as=1.14p ps=6.38u w=6u l=1u
X65 iqmod_mfb_lpf_ota_core_hybrid_bm_pex_half_1.iqmod_mfb_lpf_ota_core_inv_NF6_0.vout iqmod_mfb_lpf_ota_core_hybrid_bm_pex_half_1.iqmod_mfb_lpf_ota_core_inv_NF10_0.vout VDD VDD sg13_lv_pmos ad=1.14p pd=6.38u as=1.14p ps=6.38u w=6u l=1u
X66 iqmod_mfb_lpf_ota_core_hybrid_bm_pex_half_1.iqmod_mfb_lpf_ota_core_inv_NF6_0.vout di_ota_en iqmod_mfb_lpf_ota_core_hybrid_bm_pex_half_1.iqmod_mfb_lpf_ota_core_inv_NF10_0.vout VSS sg13_lv_nmos ad=0.19p pd=1.38u as=0.19p ps=1.38u w=1u l=0.13u
X67 iqmod_mfb_lpf_ota_core_hybrid_bm_pex_half_0.iqmod_mfb_lpf_ota_core_inv_NF10_0.vin iqmod_mfb_lpf_ota_core_hybrid_bm_pex_half_0.iqmod_mfb_lpf_ota_core_spdt_switch_0.iqmod_mfb_lpf_ota_core_spdt_switch_inv$1_0.vout vinn VSS sg13_lv_nmos ad=0.19p pd=1.38u as=0.19p ps=1.38u w=1u l=0.13u
X68 VSS VSS VSS VSS sg13_lv_nmos ad=0.19p pd=1.38u as=0 ps=0 w=1u l=1u
X69 voutn iqmod_mfb_lpf_ota_core_hybrid_bm_pex_half_1.iqmod_mfb_lpf_ota_core_inv_NF10_0.vin VDD VDD sg13_lv_pmos ad=1.14p pd=6.38u as=1.14p ps=6.38u w=6u l=1u
X70 iqmod_mfb_lpf_ota_core_hybrid_bm_pex_half_1.iqmod_mfb_lpf_ota_core_inv_NF10_0.vout di_ota_en iqmod_mfb_lpf_ota_core_hybrid_bm_pex_half_1.iqmod_mfb_lpf_ota_core_inv_NF6_0.vout VSS sg13_lv_nmos ad=0.19p pd=1.38u as=0.19p ps=1.38u w=1u l=0.13u
X71 voutn iqmod_mfb_lpf_ota_core_hybrid_bm_pex_half_1.iqmod_mfb_lpf_ota_core_inv_NF6_0.vout VSS VSS sg13_lv_nmos ad=0.19p pd=1.38u as=0.19p ps=1.38u w=1u l=1u
X72 VDD iqmod_mfb_lpf_ota_core_hybrid_bm_pex_half_1.iqmod_mfb_lpf_ota_core_inv_NF6_0.vout voutp VDD sg13_lv_pmos ad=1.14p pd=6.38u as=1.14p ps=6.38u w=6u l=1u
X73 VSS iqmod_mfb_lpf_ota_core_hybrid_bm_pex_half_0.iqmod_mfb_lpf_ota_core_inv_NF10_0.vin iqmod_mfb_lpf_ota_core_hybrid_bm_pex_half_1.iqmod_mfb_lpf_ota_core_inv_NF10_0.vout VSS sg13_lv_nmos ad=0.19p pd=1.38u as=0.19p ps=1.38u w=1u l=1u
X74 vinn iqmod_mfb_lpf_ota_core_hybrid_bm_pex_half_0.iqmod_mfb_lpf_ota_core_spdt_switch_0.iqmod_mfb_lpf_ota_core_spdt_switch_inv$1_0.vout iqmod_mfb_lpf_ota_core_hybrid_bm_pex_half_0.iqmod_mfb_lpf_ota_core_inv_NF10_0.vin VSS sg13_lv_nmos ad=0.19p pd=1.38u as=0.19p ps=1.38u w=1u l=0.13u
X75 VSS VSS VSS VSS sg13_lv_nmos ad=0.19p pd=1.38u as=0 ps=0 w=1u l=1u
X76 VDD VDD VDD VDD sg13_lv_pmos ad=1.14p pd=6.38u as=0 ps=0 w=6u l=1u
X77 VSS iqmod_mfb_lpf_ota_core_hybrid_bm_pex_half_1.iqmod_mfb_lpf_ota_core_tg_1.v_a iqmod_mfb_lpf_ota_core_hybrid_bm_pex_half_1.iqmod_mfb_lpf_ota_core_inv_NF6_2.vin VSS sg13_lv_nmos ad=0.19p pd=1.38u as=0.19p ps=1.38u w=1u l=1u
X78 iqmod_mfb_lpf_ota_core_hybrid_bm_pex_half_1.iqmod_mfb_lpf_ota_core_inv_NF6_2.vin iqmod_mfb_lpf_ota_core_hybrid_bm_pex_half_1.iqmod_mfb_lpf_ota_core_tg_1.v_a VDD VDD sg13_lv_pmos ad=1.14p pd=6.38u as=1.14p ps=6.38u w=6u l=1u
X79 iqmod_mfb_lpf_ota_core_hybrid_bm_pex_half_1.iqmod_mfb_lpf_ota_core_inv_NF6_0.vout iqmod_mfb_lpf_ota_core_hybrid_bm_pex_half_1.iqmod_mfb_lpf_ota_core_inv_NF6_2.vin VSS VSS sg13_lv_nmos ad=0.19p pd=1.38u as=0.19p ps=1.38u w=1u l=1u
X80 VSS iqmod_mfb_lpf_ota_core_hybrid_bm_pex_half_1.iqmod_mfb_lpf_ota_core_inv_NF10_0.vin iqmod_mfb_lpf_ota_core_hybrid_bm_pex_half_1.iqmod_mfb_lpf_ota_core_inv_NF10_0.vout VSS sg13_lv_nmos ad=0.19p pd=1.38u as=0.19p ps=1.38u w=1u l=1u
X81 VDD iqmod_mfb_lpf_ota_core_hybrid_bm_pex_half_1.iqmod_mfb_lpf_ota_core_spdt_switch_0.do_spdt_ctrl_n iqmod_mfb_lpf_ota_core_hybrid_bm_pex_half_1.iqmod_mfb_lpf_ota_core_inv_NF10_0.vin VSS sg13_lv_nmos ad=0.19p pd=1.38u as=0.19p ps=1.38u w=1u l=0.13u
X82 VSS VSS VSS VSS sg13_lv_nmos ad=0.34p pd=2.68u as=0 ps=0 w=1u l=1u
X83 voutn iqmod_mfb_lpf_ota_core_hybrid_bm_pex_half_1.iqmod_mfb_lpf_ota_core_inv_NF6_0.vout VSS VSS sg13_lv_nmos ad=0.19p pd=1.38u as=0.19p ps=1.38u w=1u l=1u
X84 VDD iqmod_mfb_lpf_ota_core_hybrid_bm_pex_half_1.iqmod_mfb_lpf_ota_core_inv_NF10_0.vout iqmod_mfb_lpf_ota_core_hybrid_bm_pex_half_1.iqmod_mfb_lpf_ota_core_inv_NF6_0.vout VDD sg13_lv_pmos ad=1.14p pd=6.38u as=1.14p ps=6.38u w=6u l=1u
X85 iqmod_mfb_lpf_ota_core_hybrid_bm_pex_half_1.iqmod_mfb_lpf_ota_core_tg_1.v_a voutp VSS VSS sg13_lv_nmos ad=0.19p pd=1.38u as=0.19p ps=1.38u w=1u l=1u
X86 VSS VSS VSS VSS sg13_lv_nmos ad=0.19p pd=1.38u as=0 ps=0 w=1u l=0.13u
X87 iqmod_mfb_lpf_ota_core_hybrid_bm_pex_half_1.iqmod_mfb_lpf_ota_core_inv_NF6_0.vout iqmod_mfb_lpf_ota_core_hybrid_bm_pex_half_1.iqmod_mfb_lpf_ota_core_inv_NF6_2.vin VSS VSS sg13_lv_nmos ad=0.19p pd=1.38u as=0.19p ps=1.38u w=1u l=1u
X88 iqmod_mfb_lpf_ota_core_hybrid_bm_pex_half_1.iqmod_mfb_lpf_ota_core_tg_1.v_a iqmod_mfb_lpf_ota_core_hybrid_bm_pex_half_1.iqmod_mfb_lpf_ota_core_spdt_switch_0.do_spdt_ctrl_n iqmod_mfb_lpf_ota_core_hybrid_bm_pex_half_1.iqmod_mfb_lpf_ota_core_inv_NF6_2.vin VDD sg13_lv_pmos ad=2.04p pd=12.68u as=1.14p ps=6.38u w=6u l=0.13u
X89 voutp iqmod_mfb_lpf_ota_core_hybrid_bm_pex_half_1.iqmod_mfb_lpf_ota_core_inv_NF6_0.vout VDD VDD sg13_lv_pmos ad=1.14p pd=6.38u as=1.14p ps=6.38u w=6u l=1u
X90 iqmod_mfb_lpf_ota_core_hybrid_bm_pex_half_1.iqmod_mfb_lpf_ota_core_inv_NF6_2.vin iqmod_mfb_lpf_ota_core_hybrid_bm_pex_half_1.iqmod_mfb_lpf_ota_core_tg_1.v_a VSS VSS sg13_lv_nmos ad=0.19p pd=1.38u as=0.19p ps=1.38u w=1u l=1u
X91 voutp iqmod_mfb_lpf_ota_core_hybrid_bm_pex_half_0.iqmod_mfb_lpf_ota_core_inv_NF10_0.vin VSS VSS sg13_lv_nmos ad=0.19p pd=1.38u as=0.19p ps=1.38u w=1u l=1u
X92 iqmod_mfb_lpf_ota_core_hybrid_bm_pex_half_1.iqmod_mfb_lpf_ota_core_inv_NF6_2.vin iqmod_mfb_lpf_ota_core_hybrid_bm_pex_half_1.iqmod_mfb_lpf_ota_core_spdt_switch_0.do_spdt_ctrl_n iqmod_mfb_lpf_ota_core_hybrid_bm_pex_half_1.iqmod_mfb_lpf_ota_core_tg_1.v_a VDD sg13_lv_pmos ad=1.14p pd=6.38u as=1.14p ps=6.38u w=6u l=0.13u
X93 VSS iqmod_mfb_lpf_ota_core_hybrid_bm_pex_half_1.iqmod_mfb_lpf_ota_core_inv_NF6_2.vin iqmod_mfb_lpf_ota_core_hybrid_bm_pex_half_1.iqmod_mfb_lpf_ota_core_inv_NF6_0.vout VSS sg13_lv_nmos ad=0.19p pd=1.38u as=0.19p ps=1.38u w=1u l=1u
X94 VDD iqmod_mfb_lpf_ota_core_hybrid_bm_pex_half_1.iqmod_mfb_lpf_ota_core_tg_1.v_a iqmod_mfb_lpf_ota_core_hybrid_bm_pex_half_1.iqmod_mfb_lpf_ota_core_inv_NF6_2.vin VDD sg13_lv_pmos ad=1.14p pd=6.38u as=1.14p ps=6.38u w=6u l=1u
X95 iqmod_mfb_lpf_ota_core_hybrid_bm_pex_half_1.iqmod_mfb_lpf_ota_core_tg_1.v_a voutn VDD VDD sg13_lv_pmos ad=1.14p pd=6.38u as=1.14p ps=6.38u w=6u l=1u
X96 iqmod_mfb_lpf_ota_core_hybrid_bm_pex_half_1.iqmod_mfb_lpf_ota_core_inv_NF6_2.vin di_ota_en iqmod_mfb_lpf_ota_core_hybrid_bm_pex_half_1.iqmod_mfb_lpf_ota_core_tg_1.v_a VSS sg13_lv_nmos ad=0.19p pd=1.38u as=0.19p ps=1.38u w=1u l=0.13u
X97 iqmod_mfb_lpf_ota_core_hybrid_bm_pex_half_1.iqmod_mfb_lpf_ota_core_inv_NF6_2.vin iqmod_mfb_lpf_ota_core_hybrid_bm_pex_half_1.iqmod_mfb_lpf_ota_core_tg_1.v_a VDD VDD sg13_lv_pmos ad=1.14p pd=6.38u as=1.14p ps=6.38u w=6u l=1u
X98 VDD voutn iqmod_mfb_lpf_ota_core_hybrid_bm_pex_half_1.iqmod_mfb_lpf_ota_core_tg_1.v_a VDD sg13_lv_pmos ad=1.14p pd=6.38u as=1.14p ps=6.38u w=6u l=1u
X99 iqmod_mfb_lpf_ota_core_hybrid_bm_pex_half_1.iqmod_mfb_lpf_ota_core_tg_1.v_a voutn VSS VSS sg13_lv_nmos ad=0.19p pd=1.38u as=0.19p ps=1.38u w=1u l=1u
X100 iqmod_mfb_lpf_ota_core_hybrid_bm_pex_half_1.iqmod_mfb_lpf_ota_core_tg_1.v_a voutn VDD VDD sg13_lv_pmos ad=1.14p pd=6.38u as=1.14p ps=6.38u w=6u l=1u
X101 voutp iqmod_mfb_lpf_ota_core_hybrid_bm_pex_half_1.iqmod_mfb_lpf_ota_core_inv_NF6_0.vout VSS VSS sg13_lv_nmos ad=0.19p pd=1.38u as=0.19p ps=1.38u w=1u l=1u
X102 VDD iqmod_mfb_lpf_ota_core_hybrid_bm_pex_half_1.iqmod_mfb_lpf_ota_core_spdt_switch_0.iqmod_mfb_lpf_ota_core_spdt_switch_inv$1_0.vout iqmod_mfb_lpf_ota_core_hybrid_bm_pex_half_1.iqmod_mfb_lpf_ota_core_inv_NF10_0.vin VDD sg13_lv_pmos ad=2.04p pd=12.68u as=1.14p ps=6.38u w=6u l=0.13u
X103 VSS VSS VSS VSS sg13_lv_nmos ad=0.34p pd=2.68u as=0 ps=0 w=1u l=0.13u
X104 VDD iqmod_mfb_lpf_ota_core_hybrid_bm_pex_half_1.iqmod_mfb_lpf_ota_core_inv_NF6_0.vout voutp VDD sg13_lv_pmos ad=1.14p pd=6.38u as=1.14p ps=6.38u w=6u l=1u
X105 iqmod_mfb_lpf_ota_core_hybrid_bm_pex_half_1.iqmod_mfb_lpf_ota_core_inv_NF10_0.vin iqmod_mfb_lpf_ota_core_hybrid_bm_pex_half_1.iqmod_mfb_lpf_ota_core_spdt_switch_0.iqmod_mfb_lpf_ota_core_spdt_switch_inv$1_0.vout VDD VDD sg13_lv_pmos ad=1.14p pd=6.38u as=1.14p ps=6.38u w=6u l=0.13u
X106 VSS iqmod_mfb_lpf_ota_core_hybrid_bm_pex_half_1.iqmod_mfb_lpf_ota_core_inv_NF10_0.vout iqmod_mfb_lpf_ota_core_hybrid_bm_pex_half_1.iqmod_mfb_lpf_ota_core_inv_NF6_0.vout VSS sg13_lv_nmos ad=0.19p pd=1.38u as=0.19p ps=1.38u w=1u l=1u
X107 voutp iqmod_mfb_lpf_ota_core_hybrid_bm_pex_half_0.iqmod_mfb_lpf_ota_core_inv_NF10_0.vin VDD VDD sg13_lv_pmos ad=1.14p pd=6.38u as=1.14p ps=6.38u w=6u l=1u
X108 VDD VDD VDD VDD sg13_lv_pmos ad=1.14p pd=6.38u as=0 ps=0 w=6u l=1u
X109 iqmod_mfb_lpf_ota_core_hybrid_bm_pex_half_0.iqmod_mfb_lpf_ota_core_inv_NF10_0.vin iqmod_mfb_lpf_ota_core_hybrid_bm_pex_half_0.iqmod_mfb_lpf_ota_core_spdt_switch_0.do_spdt_ctrl_n VDD VSS sg13_lv_nmos ad=0.19p pd=1.38u as=0.19p ps=1.38u w=1u l=0.13u
X110 VSS iqmod_mfb_lpf_ota_core_hybrid_bm_pex_half_1.iqmod_mfb_lpf_ota_core_inv_NF6_0.vout voutn VSS sg13_lv_nmos ad=0.19p pd=1.38u as=0.19p ps=1.38u w=1u l=1u
X111 VDD iqmod_mfb_lpf_ota_core_hybrid_bm_pex_half_1.iqmod_mfb_lpf_ota_core_inv_NF6_0.vout voutn VDD sg13_lv_pmos ad=1.14p pd=6.38u as=1.14p ps=6.38u w=6u l=1u
X112 iqmod_mfb_lpf_ota_core_hybrid_bm_pex_half_1.iqmod_mfb_lpf_ota_core_inv_NF10_0.vout iqmod_mfb_lpf_ota_core_hybrid_bm_pex_half_0.iqmod_mfb_lpf_ota_core_inv_NF10_0.vin VDD VDD sg13_lv_pmos ad=1.14p pd=6.38u as=1.14p ps=6.38u w=6u l=1u
X113 iqmod_mfb_lpf_ota_core_hybrid_bm_pex_half_1.iqmod_mfb_lpf_ota_core_inv_NF10_0.vin iqmod_mfb_lpf_ota_core_hybrid_bm_pex_half_1.iqmod_mfb_lpf_ota_core_spdt_switch_0.do_spdt_ctrl_n VDD VSS sg13_lv_nmos ad=0.19p pd=1.38u as=0.19p ps=1.38u w=1u l=0.13u
X114 iqmod_mfb_lpf_ota_core_hybrid_bm_pex_half_1.iqmod_mfb_lpf_ota_core_tg_1.v_a di_ota_en iqmod_mfb_lpf_ota_core_hybrid_bm_pex_half_1.iqmod_mfb_lpf_ota_core_inv_NF6_2.vin VSS sg13_lv_nmos ad=0.19p pd=1.38u as=0.19p ps=1.38u w=1u l=0.13u
X115 iqmod_mfb_lpf_ota_core_hybrid_bm_pex_half_1.iqmod_mfb_lpf_ota_core_tg_1.v_a voutp VSS VSS sg13_lv_nmos ad=0.19p pd=1.38u as=0.19p ps=1.38u w=1u l=1u
X116 VDD iqmod_mfb_lpf_ota_core_hybrid_bm_pex_half_0.iqmod_mfb_lpf_ota_core_inv_NF10_0.vin voutp VDD sg13_lv_pmos ad=1.14p pd=6.38u as=1.14p ps=6.38u w=6u l=1u
X117 VSS iqmod_mfb_lpf_ota_core_hybrid_bm_pex_half_1.iqmod_mfb_lpf_ota_core_inv_NF10_0.vin voutn VSS sg13_lv_nmos ad=0.19p pd=1.38u as=0.19p ps=1.38u w=1u l=1u
X118 VSS VSS VSS VSS sg13_lv_nmos ad=0.34p pd=2.68u as=0 ps=0 w=1u l=1u
X119 VSS VSS VSS VSS sg13_lv_nmos ad=0.34p pd=2.68u as=0 ps=0 w=1u l=1u
X120 iqmod_mfb_lpf_ota_core_hybrid_bm_pex_half_1.iqmod_mfb_lpf_ota_core_tg_1.v_a voutp VDD VDD sg13_lv_pmos ad=1.14p pd=6.38u as=1.14p ps=6.38u w=6u l=1u
X121 VSS iqmod_mfb_lpf_ota_core_hybrid_bm_pex_half_0.iqmod_mfb_lpf_ota_core_inv_NF10_0.vin voutp VSS sg13_lv_nmos ad=0.19p pd=1.38u as=0.19p ps=1.38u w=1u l=1u
X122 VDD iqmod_mfb_lpf_ota_core_hybrid_bm_pex_half_1.iqmod_mfb_lpf_ota_core_inv_NF6_0.vout voutn VDD sg13_lv_pmos ad=1.14p pd=6.38u as=1.14p ps=6.38u w=6u l=1u
X123 VDD iqmod_mfb_lpf_ota_core_hybrid_bm_pex_half_1.iqmod_mfb_lpf_ota_core_spdt_switch_0.do_spdt_ctrl_n iqmod_mfb_lpf_ota_core_hybrid_bm_pex_half_1.iqmod_mfb_lpf_ota_core_inv_NF10_0.vin VSS sg13_lv_nmos ad=0.34p pd=2.68u as=0.19p ps=1.38u w=1u l=0.13u
X124 VSS voutn iqmod_mfb_lpf_ota_core_hybrid_bm_pex_half_1.iqmod_mfb_lpf_ota_core_tg_1.v_a VSS sg13_lv_nmos ad=0.19p pd=1.38u as=0.19p ps=1.38u w=1u l=1u
X125 iqmod_mfb_lpf_ota_core_hybrid_bm_pex_half_1.iqmod_mfb_lpf_ota_core_inv_NF10_0.vin iqmod_mfb_lpf_ota_core_hybrid_bm_pex_half_1.iqmod_mfb_lpf_ota_core_spdt_switch_0.do_spdt_ctrl_n VDD VSS sg13_lv_nmos ad=0.19p pd=1.38u as=0.34p ps=2.68u w=1u l=0.13u
X126 iqmod_mfb_lpf_ota_core_hybrid_bm_pex_half_1.iqmod_mfb_lpf_ota_core_tg_1.v_a voutp VSS VSS sg13_lv_nmos ad=0.19p pd=1.38u as=0.19p ps=1.38u w=1u l=1u
X127 VSS iqmod_mfb_lpf_ota_core_hybrid_bm_pex_half_1.iqmod_mfb_lpf_ota_core_inv_NF6_0.vout voutn VSS sg13_lv_nmos ad=0.19p pd=1.38u as=0.19p ps=1.38u w=1u l=1u
X128 VDD iqmod_mfb_lpf_ota_core_hybrid_bm_pex_half_1.iqmod_mfb_lpf_ota_core_inv_NF10_0.vout iqmod_mfb_lpf_ota_core_hybrid_bm_pex_half_1.iqmod_mfb_lpf_ota_core_inv_NF6_0.vout VDD sg13_lv_pmos ad=1.14p pd=6.38u as=1.14p ps=6.38u w=6u l=1u
X129 VSS iqmod_mfb_lpf_ota_core_hybrid_bm_pex_half_1.iqmod_mfb_lpf_ota_core_inv_NF10_0.vin voutn VSS sg13_lv_nmos ad=0.19p pd=1.38u as=0.19p ps=1.38u w=1u l=1u
X130 VSS voutp iqmod_mfb_lpf_ota_core_hybrid_bm_pex_half_1.iqmod_mfb_lpf_ota_core_tg_1.v_a VSS sg13_lv_nmos ad=0.19p pd=1.38u as=0.19p ps=1.38u w=1u l=1u
X131 iqmod_mfb_lpf_ota_core_hybrid_bm_pex_half_1.iqmod_mfb_lpf_ota_core_inv_NF6_2.vin iqmod_mfb_lpf_ota_core_hybrid_bm_pex_half_1.iqmod_mfb_lpf_ota_core_tg_1.v_a VSS VSS sg13_lv_nmos ad=0.19p pd=1.38u as=0.19p ps=1.38u w=1u l=1u
X132 iqmod_mfb_lpf_ota_core_hybrid_bm_pex_half_1.iqmod_mfb_lpf_ota_core_inv_NF6_0.vout iqmod_mfb_lpf_ota_core_hybrid_bm_pex_half_1.iqmod_mfb_lpf_ota_core_inv_NF10_0.vout VDD VDD sg13_lv_pmos ad=1.14p pd=6.38u as=1.14p ps=6.38u w=6u l=1u
X133 VDD iqmod_mfb_lpf_ota_core_hybrid_bm_pex_half_1.iqmod_mfb_lpf_ota_core_tg_1.v_a iqmod_mfb_lpf_ota_core_hybrid_bm_pex_half_1.iqmod_mfb_lpf_ota_core_inv_NF6_2.vin VDD sg13_lv_pmos ad=1.14p pd=6.38u as=1.14p ps=6.38u w=6u l=1u
X134 VDD iqmod_mfb_lpf_ota_core_hybrid_bm_pex_half_1.iqmod_mfb_lpf_ota_core_inv_NF10_0.vin voutn VDD sg13_lv_pmos ad=1.14p pd=6.38u as=1.14p ps=6.38u w=6u l=1u
X135 VDD iqmod_mfb_lpf_ota_core_hybrid_bm_pex_half_1.iqmod_mfb_lpf_ota_core_inv_NF10_0.vin iqmod_mfb_lpf_ota_core_hybrid_bm_pex_half_1.iqmod_mfb_lpf_ota_core_inv_NF10_0.vout VDD sg13_lv_pmos ad=1.14p pd=6.38u as=1.14p ps=6.38u w=6u l=1u
X136 VDD voutp iqmod_mfb_lpf_ota_core_hybrid_bm_pex_half_1.iqmod_mfb_lpf_ota_core_tg_1.v_a VDD sg13_lv_pmos ad=1.14p pd=6.38u as=1.14p ps=6.38u w=6u l=1u
X137 VDD iqmod_mfb_lpf_ota_core_hybrid_bm_pex_half_1.iqmod_mfb_lpf_ota_core_inv_NF10_0.vin voutn VDD sg13_lv_pmos ad=1.14p pd=6.38u as=1.14p ps=6.38u w=6u l=1u
X138 iqmod_mfb_lpf_ota_core_hybrid_bm_pex_half_1.iqmod_mfb_lpf_ota_core_spdt_switch_0.do_spdt_ctrl_n di_ota_en VSS VSS sg13_lv_nmos ad=0.19p pd=1.38u as=0.19p ps=1.38u w=1u l=0.13u
X139 voutp iqmod_mfb_lpf_ota_core_hybrid_bm_pex_half_1.iqmod_mfb_lpf_ota_core_inv_NF6_0.vout VSS VSS sg13_lv_nmos ad=0.19p pd=1.38u as=0.19p ps=1.38u w=1u l=1u
X140 VDD iqmod_mfb_lpf_ota_core_hybrid_bm_pex_half_1.iqmod_mfb_lpf_ota_core_inv_NF10_0.vin iqmod_mfb_lpf_ota_core_hybrid_bm_pex_half_1.iqmod_mfb_lpf_ota_core_inv_NF10_0.vout VDD sg13_lv_pmos ad=1.14p pd=6.38u as=1.14p ps=6.38u w=6u l=1u
X141 iqmod_mfb_lpf_ota_core_hybrid_bm_pex_half_1.iqmod_mfb_lpf_ota_core_inv_NF6_0.vout iqmod_mfb_lpf_ota_core_hybrid_bm_pex_half_1.iqmod_mfb_lpf_ota_core_inv_NF6_2.vin VSS VSS sg13_lv_nmos ad=0.19p pd=1.38u as=0.19p ps=1.38u w=1u l=1u
X142 VDD iqmod_mfb_lpf_ota_core_hybrid_bm_pex_half_1.iqmod_mfb_lpf_ota_core_inv_NF6_0.vout voutp VDD sg13_lv_pmos ad=1.14p pd=6.38u as=1.14p ps=6.38u w=6u l=1u
X143 iqmod_mfb_lpf_ota_core_hybrid_bm_pex_half_1.iqmod_mfb_lpf_ota_core_inv_NF6_0.vout iqmod_mfb_lpf_ota_core_hybrid_bm_pex_half_1.iqmod_mfb_lpf_ota_core_inv_NF6_2.vin VDD VDD sg13_lv_pmos ad=1.14p pd=6.38u as=1.14p ps=6.38u w=6u l=1u
X144 VDD VDD VDD VDD sg13_lv_pmos ad=2.04p pd=12.68u as=0 ps=0 w=6u l=1u
X145 VDD VDD VDD VDD sg13_lv_pmos ad=1.14p pd=6.38u as=0 ps=0 w=6u l=0.13u
X146 VSS VSS VSS VSS sg13_lv_nmos ad=0.34p pd=2.68u as=0 ps=0 w=1u l=1u
X147 VDD iqmod_mfb_lpf_ota_core_hybrid_bm_pex_half_0.iqmod_mfb_lpf_ota_core_spdt_switch_0.iqmod_mfb_lpf_ota_core_spdt_switch_inv$1_0.vout iqmod_mfb_lpf_ota_core_hybrid_bm_pex_half_0.iqmod_mfb_lpf_ota_core_inv_NF10_0.vin VDD sg13_lv_pmos ad=1.14p pd=6.38u as=1.14p ps=6.38u w=6u l=0.13u
X148 iqmod_mfb_lpf_ota_core_hybrid_bm_pex_half_0.iqmod_mfb_lpf_ota_core_inv_NF10_0.vin iqmod_mfb_lpf_ota_core_hybrid_bm_pex_half_0.iqmod_mfb_lpf_ota_core_spdt_switch_0.do_spdt_ctrl_n vinn VDD sg13_lv_pmos ad=1.14p pd=6.38u as=1.14p ps=6.38u w=6u l=0.13u
X149 VSS VSS VSS VSS sg13_lv_nmos ad=0.19p pd=1.38u as=0 ps=0 w=1u l=1u
X150 VDD VDD VDD VDD sg13_lv_pmos ad=2.04p pd=12.68u as=0 ps=0 w=6u l=1u
X151 iqmod_mfb_lpf_ota_core_hybrid_bm_pex_half_1.iqmod_mfb_lpf_ota_core_inv_NF6_0.vout iqmod_mfb_lpf_ota_core_hybrid_bm_pex_half_1.iqmod_mfb_lpf_ota_core_inv_NF6_2.vin VSS VSS sg13_lv_nmos ad=0.19p pd=1.38u as=0.19p ps=1.38u w=1u l=1u
X152 VDD voutn iqmod_mfb_lpf_ota_core_hybrid_bm_pex_half_1.iqmod_mfb_lpf_ota_core_tg_1.v_a VDD sg13_lv_pmos ad=1.14p pd=6.38u as=1.14p ps=6.38u w=6u l=1u
X153 VDD iqmod_mfb_lpf_ota_core_hybrid_bm_pex_half_1.iqmod_mfb_lpf_ota_core_spdt_switch_0.do_spdt_ctrl_n iqmod_mfb_lpf_ota_core_hybrid_bm_pex_half_1.iqmod_mfb_lpf_ota_core_spdt_switch_0.iqmod_mfb_lpf_ota_core_spdt_switch_inv$1_0.vout VDD sg13_lv_pmos ad=1.14p pd=6.38u as=1.14p ps=6.38u w=6u l=0.13u
X154 VSS iqmod_mfb_lpf_ota_core_hybrid_bm_pex_half_1.iqmod_mfb_lpf_ota_core_inv_NF6_2.vin iqmod_mfb_lpf_ota_core_hybrid_bm_pex_half_1.iqmod_mfb_lpf_ota_core_inv_NF6_0.vout VSS sg13_lv_nmos ad=0.19p pd=1.38u as=0.19p ps=1.38u w=1u l=1u
X155 voutn iqmod_mfb_lpf_ota_core_hybrid_bm_pex_half_1.iqmod_mfb_lpf_ota_core_inv_NF10_0.vin VSS VSS sg13_lv_nmos ad=0.19p pd=1.38u as=0.19p ps=1.38u w=1u l=1u
X156 iqmod_mfb_lpf_ota_core_hybrid_bm_pex_half_1.iqmod_mfb_lpf_ota_core_tg_1.v_a voutn VDD VDD sg13_lv_pmos ad=1.14p pd=6.38u as=1.14p ps=6.38u w=6u l=1u
X157 VSS voutn iqmod_mfb_lpf_ota_core_hybrid_bm_pex_half_1.iqmod_mfb_lpf_ota_core_tg_1.v_a VSS sg13_lv_nmos ad=0.19p pd=1.38u as=0.19p ps=1.38u w=1u l=1u
X158 voutn iqmod_mfb_lpf_ota_core_hybrid_bm_pex_half_1.iqmod_mfb_lpf_ota_core_inv_NF6_0.vout VSS VSS sg13_lv_nmos ad=0.19p pd=1.38u as=0.19p ps=1.38u w=1u l=1u