* PEX produced on Sat Mar 28 09:12:05 PM CET 2026 using /foss/tools/sak/sak-pex.sh with m=1 and s=1
* NGSPICE file created from iqmod_mfb_lpf_half_pex.ext - technology: ihp-sg13g2

.subckt iqmod_mfb_lpf_half_pex vinp VSS VDD di_filter_en voutn C1_half C2_half
X0 VSS iqmod_mfb_lpf_ota_core_hybrid_bm_half_0.iqmod_mfb_lpf_ota_core_tg_0.v_b voutn VSS sg13_lv_nmos ad=0.19p pd=1.38u as=0.19p ps=1.38u w=1u l=1u
X1 VSS iqmod_mfb_lpf_ota_core_hybrid_bm_half_0.iqmod_mfb_lpf_ota_core_inv_NF20_1.vin voutn VSS sg13_lv_nmos ad=0.19p pd=1.38u as=0.19p ps=1.38u w=1u l=1u
X2 VDD voutn iqmod_mfb_lpf_ota_core_hybrid_bm_half_0.iqmod_mfb_lpf_ota_core_inv_NF20_0.vout VDD sg13_lv_pmos ad=1.14p pd=6.38u as=1.14p ps=6.38u w=6u l=1u
X3 VSS VSS VSS VSS sg13_lv_nmos ad=0.34p pd=2.68u as=1.181n ps=1.86236m w=1u l=1u
X4 voutn iqmod_mfb_lpf_ota_core_hybrid_bm_half_0.iqmod_mfb_lpf_ota_core_inv_NF20_1.vin VDD VDD sg13_lv_pmos ad=1.14p pd=6.38u as=1.14p ps=6.38u w=6u l=1u
X5 VSS VSS VSS rhigh l=27u w=0.5u
X6 iqmod_mfb_lpf_ota_core_hybrid_bm_half_0.iqmod_mfb_lpf_ota_core_tg_0.v_a iqmod_mfb_lpf_ota_core_hybrid_bm_half_0.iqmod_mfb_lpf_ota_core_inv_NF20_1.vin VDD VDD sg13_lv_pmos ad=1.14p pd=6.38u as=1.14p ps=6.38u w=6u l=1u
X7 iqmod_mfb_lpf_ota_core_hybrid_bm_half_0.iqmod_mfb_lpf_ota_core_inv_NF6_1.vout iqmod_mfb_lpf_ota_core_hybrid_bm_half_0.iqmod_mfb_lpf_ota_core_inv_NF20_0.vout VSS VSS sg13_lv_nmos ad=0.19p pd=1.38u as=0.19p ps=1.38u w=1u l=1u
X8 VDD VDD VDD VDD sg13_lv_pmos ad=2.04p pd=12.68u as=0.81233n ps=1.61766m w=6u l=1u
X9 VSS iqmod_mfb_lpf_ota_core_hybrid_bm_half_0.iqmod_mfb_lpf_ota_core_tg_0.di_tg_ctrl_n iqmod_mfb_lpf_ota_core_hybrid_bm_half_0.iqmod_mfb_lpf_ota_core_spdt_switch_0.iqmod_mfb_lpf_ota_core_spdt_switch_inv$1_0.vout VSS sg13_lv_nmos ad=0.19p pd=1.38u as=0.19p ps=1.38u w=1u l=0.13u
X10 iqmod_mfb_lpf_ota_core_hybrid_bm_half_0.iqmod_mfb_lpf_ota_core_inv_NF6_1.vout di_filter_en iqmod_mfb_lpf_ota_core_hybrid_bm_half_0.iqmod_mfb_lpf_ota_core_inv_NF20_0.vout VSS sg13_lv_nmos ad=0.19p pd=1.38u as=0.19p ps=1.38u w=1u l=0.13u
X11 voutn iqmod_mfb_lpf_ota_core_hybrid_bm_half_0.iqmod_mfb_lpf_ota_core_tg_0.v_b VSS VSS sg13_lv_nmos ad=0.19p pd=1.38u as=0.19p ps=1.38u w=1u l=1u
X12 VDD iqmod_mfb_lpf_ota_core_hybrid_bm_half_0.iqmod_mfb_lpf_ota_core_tg_0.di_tg_ctrl_n iqmod_mfb_lpf_ota_core_hybrid_bm_half_0.iqmod_mfb_lpf_ota_core_spdt_switch_0.iqmod_mfb_lpf_ota_core_spdt_switch_inv$1_0.vout VDD sg13_lv_pmos ad=1.14p pd=6.38u as=1.14p ps=6.38u w=6u l=0.13u
X13 vinp iqmod_mfb_lpf_ota_core_hybrid_bm_half_0.iqmod_mfb_lpf_ota_core_tg_0.di_tg_ctrl_n iqmod_mfb_lpf_ota_core_hybrid_bm_half_0.iqmod_mfb_lpf_ota_core_inv_NF20_1.vin VDD sg13_lv_pmos ad=1.14p pd=6.38u as=1.14p ps=6.38u w=6u l=0.13u
X14 VDD voutn iqmod_mfb_lpf_ota_core_hybrid_bm_half_0.iqmod_mfb_lpf_ota_core_inv_NF20_0.vout VDD sg13_lv_pmos ad=1.14p pd=6.38u as=1.14p ps=6.38u w=6u l=1u
X15 voutn iqmod_mfb_lpf_ota_core_hybrid_bm_half_0.iqmod_mfb_lpf_ota_core_inv_NF20_1.vin VSS VSS sg13_lv_nmos ad=0.19p pd=1.38u as=0.19p ps=1.38u w=1u l=1u
X16 iqmod_mfb_lpf_ota_core_hybrid_bm_half_0.iqmod_mfb_lpf_ota_core_inv_NF20_0.vout voutn VDD VDD sg13_lv_pmos ad=1.14p pd=6.38u as=1.14p ps=6.38u w=6u l=1u
X17 C1_half iqmod_mfb_lpf_R1_0.v_b cap_cmim l=8u w=8u
X18 iqmod_mfb_lpf_ota_core_hybrid_bm_half_0.iqmod_mfb_lpf_ota_core_tg_0.v_b iqmod_mfb_lpf_ota_core_hybrid_bm_half_0.iqmod_mfb_lpf_ota_core_inv_NF6_1.vout VDD VDD sg13_lv_pmos ad=1.14p pd=6.38u as=1.14p ps=6.38u w=6u l=1u
X19 VSS voutn iqmod_mfb_lpf_ota_core_hybrid_bm_half_0.iqmod_mfb_lpf_ota_core_inv_NF20_0.vout VSS sg13_lv_nmos ad=0.19p pd=1.38u as=0.19p ps=1.38u w=1u l=1u
X20 C1_half iqmod_mfb_lpf_R1_0.v_b cap_cmim l=8u w=8u
X21 VSS VSS VSS rhigh l=59u w=0.5u
X22 VSS iqmod_mfb_lpf_ota_core_hybrid_bm_half_0.iqmod_mfb_lpf_ota_core_inv_NF20_0.vout iqmod_mfb_lpf_ota_core_hybrid_bm_half_0.iqmod_mfb_lpf_ota_core_inv_NF6_1.vout VSS sg13_lv_nmos ad=0.19p pd=1.38u as=0.19p ps=1.38u w=1u l=1u
X23 VDD iqmod_mfb_lpf_ota_core_hybrid_bm_half_0.iqmod_mfb_lpf_ota_core_tg_0.v_b voutn VDD sg13_lv_pmos ad=1.14p pd=6.38u as=1.14p ps=6.38u w=6u l=1u
X24 VSS VSS VSS VSS sg13_lv_nmos ad=0.19p pd=1.38u as=0 ps=0 w=1u l=0.13u
X25 VSS iqmod_mfb_lpf_ota_core_hybrid_bm_half_0.iqmod_mfb_lpf_ota_core_inv_NF6_1.vout iqmod_mfb_lpf_ota_core_hybrid_bm_half_0.iqmod_mfb_lpf_ota_core_tg_0.v_b VSS sg13_lv_nmos ad=0.19p pd=1.38u as=0.19p ps=1.38u w=1u l=1u
X26 voutn iqmod_mfb_lpf_ota_core_hybrid_bm_half_0.iqmod_mfb_lpf_ota_core_tg_0.v_b VSS VSS sg13_lv_nmos ad=0.19p pd=1.38u as=0.19p ps=1.38u w=1u l=1u
X27 voutn iqmod_mfb_lpf_ota_core_hybrid_bm_half_0.iqmod_mfb_lpf_ota_core_tg_0.v_b VDD VDD sg13_lv_pmos ad=1.14p pd=6.38u as=1.14p ps=6.38u w=6u l=1u
X28 iqmod_mfb_lpf_ota_core_hybrid_bm_half_0.iqmod_mfb_lpf_ota_core_inv_NF20_0.vout di_filter_en iqmod_mfb_lpf_ota_core_hybrid_bm_half_0.iqmod_mfb_lpf_ota_core_inv_NF6_1.vout VSS sg13_lv_nmos ad=0.34p pd=2.68u as=0.19p ps=1.38u w=1u l=0.13u
X29 iqmod_mfb_lpf_ota_core_hybrid_bm_half_0.iqmod_mfb_lpf_ota_core_inv_NF6_1.vout di_filter_en iqmod_mfb_lpf_ota_core_hybrid_bm_half_0.iqmod_mfb_lpf_ota_core_inv_NF20_0.vout VSS sg13_lv_nmos ad=0.19p pd=1.38u as=0.34p ps=2.68u w=1u l=0.13u
X30 iqmod_mfb_lpf_ota_core_hybrid_bm_half_0.iqmod_mfb_lpf_ota_core_inv_NF20_0.vout voutn VDD VDD sg13_lv_pmos ad=1.14p pd=6.38u as=1.14p ps=6.38u w=6u l=1u
X31 VSS voutn iqmod_mfb_lpf_ota_core_hybrid_bm_half_0.iqmod_mfb_lpf_ota_core_inv_NF20_0.vout VSS sg13_lv_nmos ad=0.19p pd=1.38u as=0.19p ps=1.38u w=1u l=1u
X32 iqmod_mfb_lpf_ota_core_hybrid_bm_half_0.iqmod_mfb_lpf_ota_core_inv_NF20_0.vout di_filter_en iqmod_mfb_lpf_ota_core_hybrid_bm_half_0.iqmod_mfb_lpf_ota_core_inv_NF6_1.vout VSS sg13_lv_nmos ad=0.19p pd=1.38u as=0.19p ps=1.38u w=1u l=0.13u
X33 voutn iqmod_mfb_lpf_ota_core_hybrid_bm_half_0.iqmod_mfb_lpf_ota_core_inv_NF20_1.vin VSS VSS sg13_lv_nmos ad=0.19p pd=1.38u as=0.19p ps=1.38u w=1u l=1u
X34 iqmod_mfb_lpf_ota_core_hybrid_bm_half_0.iqmod_mfb_lpf_ota_core_inv_NF20_0.vout voutn VSS VSS sg13_lv_nmos ad=0.19p pd=1.38u as=0.19p ps=1.38u w=1u l=1u
X35 VSS iqmod_mfb_lpf_ota_core_hybrid_bm_half_0.iqmod_mfb_lpf_ota_core_inv_NF20_1.vin voutn VSS sg13_lv_nmos ad=0.19p pd=1.38u as=0.19p ps=1.38u w=1u l=1u
X36 iqmod_mfb_lpf_ota_core_hybrid_bm_half_0.iqmod_mfb_lpf_ota_core_inv_NF20_1.vin iqmod_mfb_lpf_ota_core_hybrid_bm_half_0.iqmod_mfb_lpf_ota_core_tg_0.di_tg_ctrl_n vinp VDD sg13_lv_pmos ad=1.14p pd=6.38u as=1.14p ps=6.38u w=6u l=0.13u
X37 VDD iqmod_mfb_lpf_ota_core_hybrid_bm_half_0.iqmod_mfb_lpf_ota_core_inv_NF20_1.vin voutn VDD sg13_lv_pmos ad=1.14p pd=6.38u as=1.14p ps=6.38u w=6u l=1u
X38 iqmod_mfb_lpf_ota_core_hybrid_bm_half_0.iqmod_mfb_lpf_ota_core_inv_NF20_0.vout voutn VDD VDD sg13_lv_pmos ad=1.14p pd=6.38u as=1.14p ps=6.38u w=6u l=1u
X39 VDD iqmod_mfb_lpf_ota_core_hybrid_bm_half_0.iqmod_mfb_lpf_ota_core_inv_NF20_1.vin iqmod_mfb_lpf_ota_core_hybrid_bm_half_0.iqmod_mfb_lpf_ota_core_tg_0.v_a VDD sg13_lv_pmos ad=1.14p pd=6.38u as=1.14p ps=6.38u w=6u l=1u
X40 iqmod_mfb_lpf_ota_core_hybrid_bm_half_0.iqmod_mfb_lpf_ota_core_tg_0.v_a iqmod_mfb_lpf_ota_core_hybrid_bm_half_0.iqmod_mfb_lpf_ota_core_tg_0.di_tg_ctrl_n iqmod_mfb_lpf_ota_core_hybrid_bm_half_0.iqmod_mfb_lpf_ota_core_tg_0.v_b VDD sg13_lv_pmos ad=1.14p pd=6.38u as=1.14p ps=6.38u w=6u l=0.13u
X41 VDD voutn iqmod_mfb_lpf_ota_core_hybrid_bm_half_0.iqmod_mfb_lpf_ota_core_inv_NF20_0.vout VDD sg13_lv_pmos ad=1.14p pd=6.38u as=1.14p ps=6.38u w=6u l=1u
X42 a_13404_3903# iqmod_mfb_lpf_R2_0.v_a VSS rhigh l=59u w=0.5u
X43 VDD iqmod_mfb_lpf_ota_core_hybrid_bm_half_0.iqmod_mfb_lpf_ota_core_tg_0.v_b voutn VDD sg13_lv_pmos ad=1.14p pd=6.38u as=1.14p ps=6.38u w=6u l=1u
X44 VSS iqmod_mfb_lpf_ota_core_hybrid_bm_half_0.iqmod_mfb_lpf_ota_core_inv_NF20_1.vin voutn VSS sg13_lv_nmos ad=0.19p pd=1.38u as=0.19p ps=1.38u w=1u l=1u
X45 iqmod_mfb_lpf_ota_core_hybrid_bm_half_0.iqmod_mfb_lpf_ota_core_tg_0.v_a iqmod_mfb_lpf_ota_core_hybrid_bm_half_0.iqmod_mfb_lpf_ota_core_inv_NF20_1.vin VSS VSS sg13_lv_nmos ad=0.19p pd=1.38u as=0.19p ps=1.38u w=1u l=1u
X46 voutn iqmod_mfb_lpf_ota_core_hybrid_bm_half_0.iqmod_mfb_lpf_ota_core_tg_0.v_b VSS VSS sg13_lv_nmos ad=0.19p pd=1.38u as=0.19p ps=1.38u w=1u l=1u
X47 VDD iqmod_mfb_lpf_ota_core_hybrid_bm_half_0.iqmod_mfb_lpf_ota_core_inv_NF6_1.vout iqmod_mfb_lpf_ota_core_hybrid_bm_half_0.iqmod_mfb_lpf_ota_core_tg_0.v_b VDD sg13_lv_pmos ad=1.14p pd=6.38u as=1.14p ps=6.38u w=6u l=1u
X48 iqmod_mfb_lpf_ota_core_hybrid_bm_half_0.iqmod_mfb_lpf_ota_core_inv_NF6_1.vout iqmod_mfb_lpf_ota_core_hybrid_bm_half_0.iqmod_mfb_lpf_ota_core_inv_NF20_0.vout VDD VDD sg13_lv_pmos ad=1.14p pd=6.38u as=1.14p ps=6.38u w=6u l=1u
X49 VSS iqmod_mfb_lpf_ota_core_hybrid_bm_half_0.iqmod_mfb_lpf_ota_core_tg_0.v_a iqmod_mfb_lpf_ota_core_hybrid_bm_half_0.iqmod_mfb_lpf_ota_core_tg_0.v_b VSS sg13_lv_nmos ad=0.19p pd=1.38u as=0.19p ps=1.38u w=1u l=1u
X50 VDD VDD VDD VDD sg13_lv_pmos ad=1.14p pd=6.38u as=0 ps=0 w=6u l=1u
X51 iqmod_mfb_lpf_ota_core_hybrid_bm_half_0.iqmod_mfb_lpf_ota_core_inv_NF6_1.vout di_filter_en iqmod_mfb_lpf_ota_core_hybrid_bm_half_0.iqmod_mfb_lpf_ota_core_inv_NF20_0.vout VSS sg13_lv_nmos ad=0.19p pd=1.38u as=0.19p ps=1.38u w=1u l=0.13u
X52 iqmod_mfb_lpf_ota_core_hybrid_bm_half_0.iqmod_mfb_lpf_ota_core_inv_NF20_0.vout iqmod_mfb_lpf_ota_core_hybrid_bm_half_0.iqmod_mfb_lpf_ota_core_tg_0.di_tg_ctrl_n iqmod_mfb_lpf_ota_core_hybrid_bm_half_0.iqmod_mfb_lpf_ota_core_inv_NF6_1.vout VDD sg13_lv_pmos ad=1.14p pd=6.38u as=1.14p ps=6.38u w=6u l=0.13u
X53 voutn iqmod_mfb_lpf_ota_core_hybrid_bm_half_0.iqmod_mfb_lpf_ota_core_tg_0.v_b VDD VDD sg13_lv_pmos ad=1.14p pd=6.38u as=1.14p ps=6.38u w=6u l=1u
X54 VSS VSS VSS VSS sg13_lv_nmos ad=0.34p pd=2.68u as=0 ps=0 w=1u l=1u
X55 voutn iqmod_mfb_lpf_ota_core_hybrid_bm_half_0.iqmod_mfb_lpf_ota_core_tg_0.v_b VDD VDD sg13_lv_pmos ad=1.14p pd=6.38u as=1.14p ps=6.38u w=6u l=1u
X56 iqmod_mfb_lpf_ota_core_hybrid_bm_half_0.iqmod_mfb_lpf_ota_core_inv_NF20_1.vin iqmod_mfb_lpf_ota_core_hybrid_bm_half_0.iqmod_mfb_lpf_ota_core_spdt_switch_0.iqmod_mfb_lpf_ota_core_spdt_switch_inv$1_0.vout VDD VDD sg13_lv_pmos ad=1.14p pd=6.38u as=1.14p ps=6.38u w=6u l=0.13u
X57 VDD iqmod_mfb_lpf_ota_core_hybrid_bm_half_0.iqmod_mfb_lpf_ota_core_tg_0.v_b voutn VDD sg13_lv_pmos ad=1.14p pd=6.38u as=1.14p ps=6.38u w=6u l=1u
X58 VSS VSS VSS VSS sg13_lv_nmos ad=0.19p pd=1.38u as=0 ps=0 w=1u l=1u
X59 VSS iqmod_mfb_lpf_ota_core_hybrid_bm_half_0.iqmod_mfb_lpf_ota_core_inv_NF20_1.vin voutn VSS sg13_lv_nmos ad=0.19p pd=1.38u as=0.19p ps=1.38u w=1u l=1u
X60 iqmod_mfb_lpf_ota_core_hybrid_bm_half_0.iqmod_mfb_lpf_ota_core_tg_0.di_tg_ctrl_n di_filter_en VDD VDD sg13_lv_pmos ad=1.14p pd=6.38u as=1.14p ps=6.38u w=6u l=0.13u
X61 voutn iqmod_mfb_lpf_ota_core_hybrid_bm_half_0.iqmod_mfb_lpf_ota_core_inv_NF20_1.vin VSS VSS sg13_lv_nmos ad=0.19p pd=1.38u as=0.19p ps=1.38u w=1u l=1u
X62 VDD iqmod_mfb_lpf_ota_core_hybrid_bm_half_0.iqmod_mfb_lpf_ota_core_inv_NF20_1.vin voutn VDD sg13_lv_pmos ad=1.14p pd=6.38u as=1.14p ps=6.38u w=6u l=1u
X63 VDD iqmod_mfb_lpf_ota_core_hybrid_bm_half_0.iqmod_mfb_lpf_ota_core_tg_0.di_tg_ctrl_n iqmod_mfb_lpf_ota_core_hybrid_bm_half_0.iqmod_mfb_lpf_ota_core_inv_NF20_1.vin VSS sg13_lv_nmos ad=0.19p pd=1.38u as=0.19p ps=1.38u w=1u l=0.13u
X64 VSS voutn iqmod_mfb_lpf_ota_core_hybrid_bm_half_0.iqmod_mfb_lpf_ota_core_inv_NF20_0.vout VSS sg13_lv_nmos ad=0.19p pd=1.38u as=0.19p ps=1.38u w=1u l=1u
X65 VSS iqmod_mfb_lpf_ota_core_hybrid_bm_half_0.iqmod_mfb_lpf_ota_core_tg_0.v_b voutn VSS sg13_lv_nmos ad=0.19p pd=1.38u as=0.19p ps=1.38u w=1u l=1u
X66 voutn iqmod_mfb_lpf_ota_core_hybrid_bm_half_0.iqmod_mfb_lpf_ota_core_inv_NF20_1.vin VDD VDD sg13_lv_pmos ad=1.14p pd=6.38u as=1.14p ps=6.38u w=6u l=1u
X67 VDD voutn iqmod_mfb_lpf_ota_core_hybrid_bm_half_0.iqmod_mfb_lpf_ota_core_inv_NF20_0.vout VDD sg13_lv_pmos ad=1.14p pd=6.38u as=1.14p ps=6.38u w=6u l=1u
X68 iqmod_mfb_lpf_ota_core_hybrid_bm_half_0.iqmod_mfb_lpf_ota_core_tg_0.v_a iqmod_mfb_lpf_ota_core_hybrid_bm_half_0.iqmod_mfb_lpf_ota_core_inv_NF20_1.vin VDD VDD sg13_lv_pmos ad=1.14p pd=6.38u as=1.14p ps=6.38u w=6u l=1u
X69 iqmod_mfb_lpf_ota_core_hybrid_bm_half_0.iqmod_mfb_lpf_ota_core_inv_NF20_0.vout voutn VDD VDD sg13_lv_pmos ad=1.14p pd=6.38u as=1.14p ps=6.38u w=6u l=1u
X70 VDD iqmod_mfb_lpf_ota_core_hybrid_bm_half_0.iqmod_mfb_lpf_ota_core_inv_NF20_1.vin iqmod_mfb_lpf_ota_core_hybrid_bm_half_0.iqmod_mfb_lpf_ota_core_tg_0.v_a VDD sg13_lv_pmos ad=1.14p pd=6.38u as=1.14p ps=6.38u w=6u l=1u
X71 VDD iqmod_mfb_lpf_ota_core_hybrid_bm_half_0.iqmod_mfb_lpf_ota_core_inv_NF20_1.vin voutn VDD sg13_lv_pmos ad=1.14p pd=6.38u as=1.14p ps=6.38u w=6u l=1u
X72 VSS voutn iqmod_mfb_lpf_ota_core_hybrid_bm_half_0.iqmod_mfb_lpf_ota_core_inv_NF20_0.vout VSS sg13_lv_nmos ad=0.19p pd=1.38u as=0.19p ps=1.38u w=1u l=1u
X73 a_13404_3903# a_25290_4203# VSS rhigh l=59u w=0.5u
X74 iqmod_mfb_lpf_ota_core_hybrid_bm_half_0.iqmod_mfb_lpf_ota_core_tg_0.v_b iqmod_mfb_lpf_ota_core_hybrid_bm_half_0.iqmod_mfb_lpf_ota_core_inv_NF6_1.vout VSS VSS sg13_lv_nmos ad=0.19p pd=1.38u as=0.19p ps=1.38u w=1u l=1u
X75 iqmod_mfb_lpf_ota_core_hybrid_bm_half_0.iqmod_mfb_lpf_ota_core_inv_NF20_0.vout voutn VSS VSS sg13_lv_nmos ad=0.19p pd=1.38u as=0.19p ps=1.38u w=1u l=1u
X76 VDD VDD VDD VDD sg13_lv_pmos ad=1.14p pd=6.38u as=0 ps=0 w=6u l=1u
X77 VDD VDD VDD VDD sg13_lv_pmos ad=1.14p pd=6.38u as=0 ps=0 w=6u l=1u
X78 VDD iqmod_mfb_lpf_ota_core_hybrid_bm_half_0.iqmod_mfb_lpf_ota_core_inv_NF6_1.vout iqmod_mfb_lpf_ota_core_hybrid_bm_half_0.iqmod_mfb_lpf_ota_core_tg_0.v_b VDD sg13_lv_pmos ad=1.14p pd=6.38u as=1.14p ps=6.38u w=6u l=1u
X79 iqmod_mfb_lpf_ota_core_hybrid_bm_half_0.iqmod_mfb_lpf_ota_core_inv_NF20_1.vin iqmod_mfb_lpf_ota_core_hybrid_bm_half_0.iqmod_mfb_lpf_ota_core_tg_0.di_tg_ctrl_n VDD VSS sg13_lv_nmos ad=0.19p pd=1.38u as=0.19p ps=1.38u w=1u l=0.13u
X80 iqmod_mfb_lpf_ota_core_hybrid_bm_half_0.iqmod_mfb_lpf_ota_core_tg_0.v_a di_filter_en iqmod_mfb_lpf_ota_core_hybrid_bm_half_0.iqmod_mfb_lpf_ota_core_tg_0.v_b VSS sg13_lv_nmos ad=0.19p pd=1.38u as=0.19p ps=1.38u w=1u l=0.13u
X81 VSS VSS VSS VSS sg13_lv_nmos ad=0.19p pd=1.38u as=0 ps=0 w=1u l=1u
X82 VDD VDD VDD VDD sg13_lv_pmos ad=1.14p pd=6.38u as=0 ps=0 w=6u l=0.13u
X83 iqmod_mfb_lpf_ota_core_hybrid_bm_half_0.iqmod_mfb_lpf_ota_core_inv_NF20_0.vout voutn VSS VSS sg13_lv_nmos ad=0.19p pd=1.38u as=0.19p ps=1.38u w=1u l=1u
X84 VSS iqmod_mfb_lpf_ota_core_hybrid_bm_half_0.iqmod_mfb_lpf_ota_core_inv_NF20_1.vin voutn VSS sg13_lv_nmos ad=0.19p pd=1.38u as=0.19p ps=1.38u w=1u l=1u
X85 iqmod_mfb_lpf_ota_core_hybrid_bm_half_0.iqmod_mfb_lpf_ota_core_inv_NF6_1.vout iqmod_mfb_lpf_ota_core_hybrid_bm_half_0.iqmod_mfb_lpf_ota_core_inv_NF20_0.vout VDD VDD sg13_lv_pmos ad=1.14p pd=6.38u as=1.14p ps=6.38u w=6u l=1u
X86 VDD iqmod_mfb_lpf_ota_core_hybrid_bm_half_0.iqmod_mfb_lpf_ota_core_inv_NF20_0.vout iqmod_mfb_lpf_ota_core_hybrid_bm_half_0.iqmod_mfb_lpf_ota_core_inv_NF6_1.vout VDD sg13_lv_pmos ad=1.14p pd=6.38u as=1.14p ps=6.38u w=6u l=1u
X87 VSS VSS VSS VSS sg13_lv_nmos ad=0.19p pd=1.38u as=0 ps=0 w=1u l=1u
X88 VSS iqmod_mfb_lpf_ota_core_hybrid_bm_half_0.iqmod_mfb_lpf_ota_core_inv_NF20_1.vin voutn VSS sg13_lv_nmos ad=0.19p pd=1.38u as=0.19p ps=1.38u w=1u l=1u
X89 VSS VSS VSS rhigh l=31u w=0.5u
X90 voutn iqmod_mfb_lpf_ota_core_hybrid_bm_half_0.iqmod_mfb_lpf_ota_core_tg_0.v_b VDD VDD sg13_lv_pmos ad=1.14p pd=6.38u as=1.14p ps=6.38u w=6u l=1u
X91 VSS VSS VSS VSS sg13_lv_nmos ad=0.19p pd=1.38u as=0 ps=0 w=1u l=1u
X92 voutn iqmod_mfb_lpf_ota_core_hybrid_bm_half_0.iqmod_mfb_lpf_ota_core_tg_0.v_b VSS VSS sg13_lv_nmos ad=0.19p pd=1.38u as=0.19p ps=1.38u w=1u l=1u
X93 VSS iqmod_mfb_lpf_ota_core_hybrid_bm_half_0.iqmod_mfb_lpf_ota_core_inv_NF20_1.vin iqmod_mfb_lpf_ota_core_hybrid_bm_half_0.iqmod_mfb_lpf_ota_core_tg_0.v_a VSS sg13_lv_nmos ad=0.19p pd=1.38u as=0.19p ps=1.38u w=1u l=1u
X94 vinp a_25290_4203# VSS rhigh l=59u w=0.5u
X95 VDD iqmod_mfb_lpf_ota_core_hybrid_bm_half_0.iqmod_mfb_lpf_ota_core_inv_NF20_1.vin voutn VDD sg13_lv_pmos ad=1.14p pd=6.38u as=1.14p ps=6.38u w=6u l=1u
X96 VDD iqmod_mfb_lpf_ota_core_hybrid_bm_half_0.iqmod_mfb_lpf_ota_core_tg_0.di_tg_ctrl_n iqmod_mfb_lpf_ota_core_hybrid_bm_half_0.iqmod_mfb_lpf_ota_core_inv_NF20_1.vin VSS sg13_lv_nmos ad=0.19p pd=1.38u as=0.19p ps=1.38u w=1u l=0.13u
X97 VSS iqmod_mfb_lpf_ota_core_hybrid_bm_half_0.iqmod_mfb_lpf_ota_core_inv_NF20_1.vin voutn VSS sg13_lv_nmos ad=0.19p pd=1.38u as=0.19p ps=1.38u w=1u l=1u
X98 VDD VDD VDD VDD sg13_lv_pmos ad=2.04p pd=12.68u as=0 ps=0 w=6u l=1u
X99 VDD VDD VDD VDD sg13_lv_pmos ad=1.14p pd=6.38u as=0 ps=0 w=6u l=1u
X100 voutn iqmod_mfb_lpf_ota_core_hybrid_bm_half_0.iqmod_mfb_lpf_ota_core_inv_NF20_1.vin VDD VDD sg13_lv_pmos ad=1.14p pd=6.38u as=1.14p ps=6.38u w=6u l=1u
X101 iqmod_mfb_lpf_ota_core_hybrid_bm_half_0.iqmod_mfb_lpf_ota_core_inv_NF20_0.vout iqmod_mfb_lpf_ota_core_hybrid_bm_half_0.iqmod_mfb_lpf_ota_core_tg_0.di_tg_ctrl_n iqmod_mfb_lpf_ota_core_hybrid_bm_half_0.iqmod_mfb_lpf_ota_core_inv_NF6_1.vout VDD sg13_lv_pmos ad=1.14p pd=6.38u as=1.14p ps=6.38u w=6u l=0.13u
X102 iqmod_mfb_lpf_ota_core_hybrid_bm_half_0.iqmod_mfb_lpf_ota_core_tg_0.v_b di_filter_en iqmod_mfb_lpf_ota_core_hybrid_bm_half_0.iqmod_mfb_lpf_ota_core_tg_0.v_a VSS sg13_lv_nmos ad=0.19p pd=1.38u as=0.19p ps=1.38u w=1u l=0.13u
X103 iqmod_mfb_lpf_ota_core_hybrid_bm_half_0.iqmod_mfb_lpf_ota_core_tg_0.v_a iqmod_mfb_lpf_ota_core_hybrid_bm_half_0.iqmod_mfb_lpf_ota_core_inv_NF20_1.vin VDD VDD sg13_lv_pmos ad=1.14p pd=6.38u as=1.14p ps=6.38u w=6u l=1u
X104 VDD voutn iqmod_mfb_lpf_ota_core_hybrid_bm_half_0.iqmod_mfb_lpf_ota_core_inv_NF20_0.vout VDD sg13_lv_pmos ad=1.14p pd=6.38u as=1.14p ps=6.38u w=6u l=1u
X105 VSS voutn iqmod_mfb_lpf_ota_core_hybrid_bm_half_0.iqmod_mfb_lpf_ota_core_inv_NF20_0.vout VSS sg13_lv_nmos ad=0.19p pd=1.38u as=0.19p ps=1.38u w=1u l=1u
X106 iqmod_mfb_lpf_ota_core_hybrid_bm_half_0.iqmod_mfb_lpf_ota_core_tg_0.v_a di_filter_en iqmod_mfb_lpf_ota_core_hybrid_bm_half_0.iqmod_mfb_lpf_ota_core_tg_0.v_b VSS sg13_lv_nmos ad=0.19p pd=1.38u as=0.19p ps=1.38u w=1u l=0.13u
X107 vinp iqmod_mfb_lpf_ota_core_hybrid_bm_half_0.iqmod_mfb_lpf_ota_core_tg_0.di_tg_ctrl_n iqmod_mfb_lpf_ota_core_hybrid_bm_half_0.iqmod_mfb_lpf_ota_core_inv_NF20_1.vin VDD sg13_lv_pmos ad=2.04p pd=12.68u as=1.14p ps=6.38u w=6u l=0.13u
X108 voutn iqmod_mfb_lpf_ota_core_hybrid_bm_half_0.iqmod_mfb_lpf_ota_core_inv_NF20_1.vin VDD VDD sg13_lv_pmos ad=1.14p pd=6.38u as=1.14p ps=6.38u w=6u l=1u
X109 C1_half iqmod_mfb_lpf_R1_0.v_b cap_cmim l=8u w=8u
X110 VSS VSS VSS VSS sg13_lv_nmos ad=0.34p pd=2.68u as=0 ps=0 w=1u l=1u
X111 iqmod_mfb_lpf_ota_core_hybrid_bm_half_0.iqmod_mfb_lpf_ota_core_tg_0.v_b iqmod_mfb_lpf_ota_core_hybrid_bm_half_0.iqmod_mfb_lpf_ota_core_tg_0.di_tg_ctrl_n iqmod_mfb_lpf_ota_core_hybrid_bm_half_0.iqmod_mfb_lpf_ota_core_tg_0.v_a VDD sg13_lv_pmos ad=1.14p pd=6.38u as=1.14p ps=6.38u w=6u l=0.13u
X112 iqmod_mfb_lpf_ota_core_hybrid_bm_half_0.iqmod_mfb_lpf_ota_core_tg_0.v_a iqmod_mfb_lpf_ota_core_hybrid_bm_half_0.iqmod_mfb_lpf_ota_core_tg_0.di_tg_ctrl_n iqmod_mfb_lpf_ota_core_hybrid_bm_half_0.iqmod_mfb_lpf_ota_core_tg_0.v_b VDD sg13_lv_pmos ad=1.14p pd=6.38u as=1.14p ps=6.38u w=6u l=0.13u
X113 VDD iqmod_mfb_lpf_ota_core_hybrid_bm_half_0.iqmod_mfb_lpf_ota_core_inv_NF6_1.vout iqmod_mfb_lpf_ota_core_hybrid_bm_half_0.iqmod_mfb_lpf_ota_core_tg_0.v_b VDD sg13_lv_pmos ad=1.14p pd=6.38u as=1.14p ps=6.38u w=6u l=1u
X114 voutn iqmod_mfb_lpf_ota_core_hybrid_bm_half_0.iqmod_mfb_lpf_ota_core_inv_NF20_1.vin VSS VSS sg13_lv_nmos ad=0.19p pd=1.38u as=0.19p ps=1.38u w=1u l=1u
X115 iqmod_mfb_lpf_ota_core_hybrid_bm_half_0.iqmod_mfb_lpf_ota_core_inv_NF20_1.vin iqmod_mfb_lpf_ota_core_hybrid_bm_half_0.iqmod_mfb_lpf_ota_core_tg_0.di_tg_ctrl_n VDD VSS sg13_lv_nmos ad=0.19p pd=1.38u as=0.19p ps=1.38u w=1u l=0.13u
X116 VSS iqmod_mfb_lpf_ota_core_hybrid_bm_half_0.iqmod_mfb_lpf_ota_core_tg_0.v_b voutn VSS sg13_lv_nmos ad=0.19p pd=1.38u as=0.19p ps=1.38u w=1u l=1u
X117 a_6620_3903# iqmod_mfb_lpf_R2_0.v_a VSS rhigh l=31u w=0.5u
X118 VDD VDD VDD VDD sg13_lv_pmos ad=2.04p pd=12.68u as=0 ps=0 w=6u l=1u
X119 iqmod_mfb_lpf_ota_core_hybrid_bm_half_0.iqmod_mfb_lpf_ota_core_inv_NF20_0.vout voutn VDD VDD sg13_lv_pmos ad=1.14p pd=6.38u as=1.14p ps=6.38u w=6u l=1u
X120 VSS VSS VSS rhigh l=59u w=0.5u
X121 voutn iqmod_mfb_lpf_ota_core_hybrid_bm_half_0.iqmod_mfb_lpf_ota_core_inv_NF20_1.vin VDD VDD sg13_lv_pmos ad=1.14p pd=6.38u as=1.14p ps=6.38u w=6u l=1u
X122 iqmod_mfb_lpf_ota_core_hybrid_bm_half_0.iqmod_mfb_lpf_ota_core_tg_0.v_b iqmod_mfb_lpf_ota_core_hybrid_bm_half_0.iqmod_mfb_lpf_ota_core_inv_NF6_1.vout VDD VDD sg13_lv_pmos ad=1.14p pd=6.38u as=1.14p ps=6.38u w=6u l=1u
X123 VSS voutn iqmod_mfb_lpf_ota_core_hybrid_bm_half_0.iqmod_mfb_lpf_ota_core_inv_NF20_0.vout VSS sg13_lv_nmos ad=0.19p pd=1.38u as=0.19p ps=1.38u w=1u l=1u
X124 iqmod_mfb_lpf_ota_core_hybrid_bm_half_0.iqmod_mfb_lpf_ota_core_inv_NF6_1.vout iqmod_mfb_lpf_ota_core_hybrid_bm_half_0.iqmod_mfb_lpf_ota_core_tg_0.di_tg_ctrl_n iqmod_mfb_lpf_ota_core_hybrid_bm_half_0.iqmod_mfb_lpf_ota_core_inv_NF20_0.vout VDD sg13_lv_pmos ad=1.14p pd=6.38u as=1.14p ps=6.38u w=6u l=0.13u
X125 VSS iqmod_mfb_lpf_ota_core_hybrid_bm_half_0.iqmod_mfb_lpf_ota_core_inv_NF20_1.vin iqmod_mfb_lpf_ota_core_hybrid_bm_half_0.iqmod_mfb_lpf_ota_core_tg_0.v_a VSS sg13_lv_nmos ad=0.19p pd=1.38u as=0.19p ps=1.38u w=1u l=1u
X126 iqmod_mfb_lpf_ota_core_hybrid_bm_half_0.iqmod_mfb_lpf_ota_core_tg_0.v_b di_filter_en iqmod_mfb_lpf_ota_core_hybrid_bm_half_0.iqmod_mfb_lpf_ota_core_tg_0.v_a VSS sg13_lv_nmos ad=0.19p pd=1.38u as=0.19p ps=1.38u w=1u l=0.13u
X127 iqmod_mfb_lpf_ota_core_hybrid_bm_half_0.iqmod_mfb_lpf_ota_core_inv_NF20_0.vout voutn VSS VSS sg13_lv_nmos ad=0.19p pd=1.38u as=0.19p ps=1.38u w=1u l=1u
X128 iqmod_mfb_lpf_ota_core_hybrid_bm_half_0.iqmod_mfb_lpf_ota_core_tg_0.v_a iqmod_mfb_lpf_ota_core_hybrid_bm_half_0.iqmod_mfb_lpf_ota_core_inv_NF20_1.vin VSS VSS sg13_lv_nmos ad=0.19p pd=1.38u as=0.19p ps=1.38u w=1u l=1u
X129 iqmod_mfb_lpf_ota_core_hybrid_bm_half_0.iqmod_mfb_lpf_ota_core_inv_NF6_1.vout iqmod_mfb_lpf_ota_core_hybrid_bm_half_0.iqmod_mfb_lpf_ota_core_inv_NF20_0.vout VSS VSS sg13_lv_nmos ad=0.19p pd=1.38u as=0.19p ps=1.38u w=1u l=1u
X130 iqmod_mfb_lpf_ota_core_hybrid_bm_half_0.iqmod_mfb_lpf_ota_core_tg_0.v_b iqmod_mfb_lpf_ota_core_hybrid_bm_half_0.iqmod_mfb_lpf_ota_core_tg_0.v_a VDD VDD sg13_lv_pmos ad=1.14p pd=6.38u as=1.14p ps=6.38u w=6u l=1u
X131 iqmod_mfb_lpf_ota_core_hybrid_bm_half_0.iqmod_mfb_lpf_ota_core_tg_0.v_b iqmod_mfb_lpf_ota_core_hybrid_bm_half_0.iqmod_mfb_lpf_ota_core_inv_NF6_1.vout VSS VSS sg13_lv_nmos ad=0.19p pd=1.38u as=0.19p ps=1.38u w=1u l=1u
X132 VDD iqmod_mfb_lpf_ota_core_hybrid_bm_half_0.iqmod_mfb_lpf_ota_core_spdt_switch_0.iqmod_mfb_lpf_ota_core_spdt_switch_inv$1_0.vout iqmod_mfb_lpf_ota_core_hybrid_bm_half_0.iqmod_mfb_lpf_ota_core_inv_NF20_1.vin VDD sg13_lv_pmos ad=2.04p pd=12.68u as=1.14p ps=6.38u w=6u l=0.13u
X133 VDD iqmod_mfb_lpf_ota_core_hybrid_bm_half_0.iqmod_mfb_lpf_ota_core_tg_0.v_a iqmod_mfb_lpf_ota_core_hybrid_bm_half_0.iqmod_mfb_lpf_ota_core_tg_0.v_b VDD sg13_lv_pmos ad=1.14p pd=6.38u as=1.14p ps=6.38u w=6u l=1u
X134 iqmod_mfb_lpf_ota_core_hybrid_bm_half_0.iqmod_mfb_lpf_ota_core_inv_NF20_0.vout voutn VSS VSS sg13_lv_nmos ad=0.19p pd=1.38u as=0.19p ps=1.38u w=1u l=1u
X135 VSS iqmod_mfb_lpf_ota_core_hybrid_bm_half_0.iqmod_mfb_lpf_ota_core_inv_NF20_1.vin voutn VSS sg13_lv_nmos ad=0.19p pd=1.38u as=0.19p ps=1.38u w=1u l=1u
X136 VDD voutn iqmod_mfb_lpf_ota_core_hybrid_bm_half_0.iqmod_mfb_lpf_ota_core_inv_NF20_0.vout VDD sg13_lv_pmos ad=1.14p pd=6.38u as=1.14p ps=6.38u w=6u l=1u
X137 iqmod_mfb_lpf_ota_core_hybrid_bm_half_0.iqmod_mfb_lpf_ota_core_inv_NF20_1.vin iqmod_mfb_lpf_ota_core_hybrid_bm_half_0.iqmod_mfb_lpf_ota_core_tg_0.di_tg_ctrl_n VDD VSS sg13_lv_nmos ad=0.19p pd=1.38u as=0.34p ps=2.68u w=1u l=0.13u
X138 VDD iqmod_mfb_lpf_ota_core_hybrid_bm_half_0.iqmod_mfb_lpf_ota_core_tg_0.di_tg_ctrl_n iqmod_mfb_lpf_ota_core_hybrid_bm_half_0.iqmod_mfb_lpf_ota_core_inv_NF20_1.vin VSS sg13_lv_nmos ad=0.34p pd=2.68u as=0.19p ps=1.38u w=1u l=0.13u
X139 VDD di_filter_en iqmod_mfb_lpf_ota_core_hybrid_bm_half_0.iqmod_mfb_lpf_ota_core_tg_0.di_tg_ctrl_n VDD sg13_lv_pmos ad=1.14p pd=6.38u as=1.14p ps=6.38u w=6u l=0.13u
X140 VDD iqmod_mfb_lpf_ota_core_hybrid_bm_half_0.iqmod_mfb_lpf_ota_core_spdt_switch_0.iqmod_mfb_lpf_ota_core_spdt_switch_inv$1_0.vout iqmod_mfb_lpf_ota_core_hybrid_bm_half_0.iqmod_mfb_lpf_ota_core_inv_NF20_1.vin VDD sg13_lv_pmos ad=1.14p pd=6.38u as=1.14p ps=6.38u w=6u l=0.13u
X141 voutn iqmod_mfb_lpf_ota_core_hybrid_bm_half_0.iqmod_mfb_lpf_ota_core_inv_NF20_1.vin VDD VDD sg13_lv_pmos ad=1.14p pd=6.38u as=1.14p ps=6.38u w=6u l=1u
X142 VSS VSS VSS rhigh l=60u w=0.5u
X143 iqmod_mfb_lpf_ota_core_hybrid_bm_half_0.iqmod_mfb_lpf_ota_core_inv_NF20_0.vout voutn VDD VDD sg13_lv_pmos ad=1.14p pd=6.38u as=1.14p ps=6.38u w=6u l=1u
X144 iqmod_mfb_lpf_ota_core_hybrid_bm_half_0.iqmod_mfb_lpf_ota_core_tg_0.v_b di_filter_en iqmod_mfb_lpf_ota_core_hybrid_bm_half_0.iqmod_mfb_lpf_ota_core_tg_0.v_a VSS sg13_lv_nmos ad=0.19p pd=1.38u as=0.34p ps=2.68u w=1u l=0.13u
X145 iqmod_mfb_lpf_ota_core_hybrid_bm_half_0.iqmod_mfb_lpf_ota_core_tg_0.v_a di_filter_en iqmod_mfb_lpf_ota_core_hybrid_bm_half_0.iqmod_mfb_lpf_ota_core_tg_0.v_b VSS sg13_lv_nmos ad=0.34p pd=2.68u as=0.19p ps=1.38u w=1u l=0.13u
X146 iqmod_mfb_lpf_ota_core_hybrid_bm_half_0.iqmod_mfb_lpf_ota_core_inv_NF20_1.vin iqmod_mfb_lpf_ota_core_hybrid_bm_half_0.iqmod_mfb_lpf_ota_core_spdt_switch_0.iqmod_mfb_lpf_ota_core_spdt_switch_inv$1_0.vout vinp VSS sg13_lv_nmos ad=0.19p pd=1.38u as=0.19p ps=1.38u w=1u l=0.13u
X147 VDD iqmod_mfb_lpf_ota_core_hybrid_bm_half_0.iqmod_mfb_lpf_ota_core_tg_0.v_b voutn VDD sg13_lv_pmos ad=1.14p pd=6.38u as=1.14p ps=6.38u w=6u l=1u
X148 voutn iqmod_mfb_lpf_ota_core_hybrid_bm_half_0.iqmod_mfb_lpf_ota_core_tg_0.v_b VSS VSS sg13_lv_nmos ad=0.19p pd=1.38u as=0.19p ps=1.38u w=1u l=1u
X149 VSS iqmod_mfb_lpf_ota_core_hybrid_bm_half_0.iqmod_mfb_lpf_ota_core_tg_0.v_b voutn VSS sg13_lv_nmos ad=0.19p pd=1.38u as=0.19p ps=1.38u w=1u l=1u
X150 voutn iqmod_mfb_lpf_ota_core_hybrid_bm_half_0.iqmod_mfb_lpf_ota_core_inv_NF20_1.vin VSS VSS sg13_lv_nmos ad=0.19p pd=1.38u as=0.19p ps=1.38u w=1u l=1u
X151 voutn iqmod_mfb_lpf_ota_core_hybrid_bm_half_0.iqmod_mfb_lpf_ota_core_tg_0.v_b VDD VDD sg13_lv_pmos ad=1.14p pd=6.38u as=1.14p ps=6.38u w=6u l=1u
X152 VSS VSS VSS VSS sg13_lv_nmos ad=0.34p pd=2.68u as=0 ps=0 w=1u l=0.13u
X153 VSS iqmod_mfb_lpf_ota_core_hybrid_bm_half_0.iqmod_mfb_lpf_ota_core_inv_NF20_1.vin iqmod_mfb_lpf_ota_core_hybrid_bm_half_0.iqmod_mfb_lpf_ota_core_tg_0.v_a VSS sg13_lv_nmos ad=0.19p pd=1.38u as=0.19p ps=1.38u w=1u l=1u
X154 VDD VDD VDD VDD sg13_lv_pmos ad=2.04p pd=12.68u as=0 ps=0 w=6u l=1u
X155 iqmod_mfb_lpf_ota_core_hybrid_bm_half_0.iqmod_mfb_lpf_ota_core_tg_0.di_tg_ctrl_n di_filter_en VSS VSS sg13_lv_nmos ad=0.19p pd=1.38u as=0.19p ps=1.38u w=1u l=0.13u
X156 iqmod_mfb_lpf_ota_core_hybrid_bm_half_0.iqmod_mfb_lpf_ota_core_tg_0.v_b iqmod_mfb_lpf_ota_core_hybrid_bm_half_0.iqmod_mfb_lpf_ota_core_tg_0.v_a VSS VSS sg13_lv_nmos ad=0.19p pd=1.38u as=0.19p ps=1.38u w=1u l=1u
X157 iqmod_mfb_lpf_ota_core_hybrid_bm_half_0.iqmod_mfb_lpf_ota_core_inv_NF20_0.vout voutn VSS VSS sg13_lv_nmos ad=0.19p pd=1.38u as=0.19p ps=1.38u w=1u l=1u
X158 voutn iqmod_mfb_lpf_ota_core_hybrid_bm_half_0.iqmod_mfb_lpf_ota_core_inv_NF20_1.vin VSS VSS sg13_lv_nmos ad=0.19p pd=1.38u as=0.19p ps=1.38u w=1u l=1u
X159 a_6620_3903# a_12906_4203# VSS rhigh l=31u w=0.5u
X160 iqmod_mfb_lpf_ota_core_hybrid_bm_half_0.iqmod_mfb_lpf_ota_core_tg_0.v_b iqmod_mfb_lpf_ota_core_hybrid_bm_half_0.iqmod_mfb_lpf_ota_core_inv_NF6_1.vout VDD VDD sg13_lv_pmos ad=1.14p pd=6.38u as=1.14p ps=6.38u w=6u l=1u
X161 VSS VSS VSS VSS sg13_lv_nmos ad=0.34p pd=2.68u as=0 ps=0 w=1u l=1u
X162 VSS voutn iqmod_mfb_lpf_ota_core_hybrid_bm_half_0.iqmod_mfb_lpf_ota_core_inv_NF20_0.vout VSS sg13_lv_nmos ad=0.19p pd=1.38u as=0.19p ps=1.38u w=1u l=1u
X163 C2_half iqmod_mfb_lpf_R2_0.v_a cap_cmim l=8u w=8u
X164 iqmod_mfb_lpf_R2_0.v_a a_37874_3903# VSS rhigh l=60u w=0.5u
X165 VSS iqmod_mfb_lpf_ota_core_hybrid_bm_half_0.iqmod_mfb_lpf_ota_core_inv_NF6_1.vout iqmod_mfb_lpf_ota_core_hybrid_bm_half_0.iqmod_mfb_lpf_ota_core_tg_0.v_b VSS sg13_lv_nmos ad=0.19p pd=1.38u as=0.19p ps=1.38u w=1u l=1u
X166 vinp iqmod_mfb_lpf_ota_core_hybrid_bm_half_0.iqmod_mfb_lpf_ota_core_spdt_switch_0.iqmod_mfb_lpf_ota_core_spdt_switch_inv$1_0.vout iqmod_mfb_lpf_ota_core_hybrid_bm_half_0.iqmod_mfb_lpf_ota_core_inv_NF20_1.vin VSS sg13_lv_nmos ad=0.19p pd=1.38u as=0.19p ps=1.38u w=1u l=0.13u
X167 voutn vinp cap_cmim l=8u w=8u
X168 voutn iqmod_mfb_lpf_ota_core_hybrid_bm_half_0.iqmod_mfb_lpf_ota_core_inv_NF20_1.vin VSS VSS sg13_lv_nmos ad=0.19p pd=1.38u as=0.19p ps=1.38u w=1u l=1u
X169 VDD VDD VDD VDD sg13_lv_pmos ad=2.04p pd=12.68u as=0 ps=0 w=6u l=0.13u
X170 VDD iqmod_mfb_lpf_ota_core_hybrid_bm_half_0.iqmod_mfb_lpf_ota_core_tg_0.v_b voutn VDD sg13_lv_pmos ad=1.14p pd=6.38u as=1.14p ps=6.38u w=6u l=1u
X171 VDD iqmod_mfb_lpf_ota_core_hybrid_bm_half_0.iqmod_mfb_lpf_ota_core_tg_0.v_b voutn VDD sg13_lv_pmos ad=1.14p pd=6.38u as=1.14p ps=6.38u w=6u l=1u
X172 VSS iqmod_mfb_lpf_ota_core_hybrid_bm_half_0.iqmod_mfb_lpf_ota_core_tg_0.v_b voutn VSS sg13_lv_nmos ad=0.19p pd=1.38u as=0.19p ps=1.38u w=1u l=1u
X173 VDD voutn iqmod_mfb_lpf_ota_core_hybrid_bm_half_0.iqmod_mfb_lpf_ota_core_inv_NF20_0.vout VDD sg13_lv_pmos ad=1.14p pd=6.38u as=1.14p ps=6.38u w=6u l=1u
X174 VSS iqmod_mfb_lpf_ota_core_hybrid_bm_half_0.iqmod_mfb_lpf_ota_core_tg_0.v_a iqmod_mfb_lpf_ota_core_hybrid_bm_half_0.iqmod_mfb_lpf_ota_core_tg_0.v_b VSS sg13_lv_nmos ad=0.19p pd=1.38u as=0.19p ps=1.38u w=1u l=1u
X175 VDD VDD VDD VDD sg13_lv_pmos ad=2.04p pd=12.68u as=0 ps=0 w=6u l=1u
X176 iqmod_mfb_lpf_ota_core_hybrid_bm_half_0.iqmod_mfb_lpf_ota_core_inv_NF20_0.vout voutn VDD VDD sg13_lv_pmos ad=1.14p pd=6.38u as=1.14p ps=6.38u w=6u l=1u
X177 VSS di_filter_en iqmod_mfb_lpf_ota_core_hybrid_bm_half_0.iqmod_mfb_lpf_ota_core_tg_0.di_tg_ctrl_n VSS sg13_lv_nmos ad=0.19p pd=1.38u as=0.19p ps=1.38u w=1u l=0.13u
X178 voutn iqmod_mfb_lpf_ota_core_hybrid_bm_half_0.iqmod_mfb_lpf_ota_core_inv_NF20_1.vin VDD VDD sg13_lv_pmos ad=1.14p pd=6.38u as=1.14p ps=6.38u w=6u l=1u