* PEX produced on Sat Mar 28 01:46:53 AM CET 2026 using /foss/tools/sak/sak-pex.sh with m=2 and s=1
* NGSPICE file created from iqmod_mfb_lpf_ota_core_hybrid_bm_half_pex.ext - technology: ihp-sg13g2

.subckt iqmod_mfb_lpf_ota_core_hybrid_bm_half_pex di_ota_en VSS VDD voutp vinp
X0 VDD iqmod_mfb_lpf_ota_core_inv_NF10_0.vin iqmod_mfb_lpf_ota_core_inv_NF10_0.vout VDD sg13_lv_pmos ad=1.14p pd=6.38u as=1.14p ps=6.38u w=6u l=1u
X1 VDD iqmod_mfb_lpf_ota_core_inv_NF10_0.vin voutp VDD sg13_lv_pmos ad=1.14p pd=6.38u as=1.14p ps=6.38u w=6u l=1u
X2 iqmod_mfb_lpf_ota_core_spdt_switch_0.do_spdt_ctrl_n di_ota_en VSS VSS sg13_lv_nmos ad=0.19p pd=1.38u as=0.19p ps=1.38u w=1u l=0.13u
X3 VDD iqmod_mfb_lpf_ota_core_inv_NF10_0.vin iqmod_mfb_lpf_ota_core_inv_NF10_0.vout VDD sg13_lv_pmos ad=1.14p pd=6.38u as=1.14p ps=6.38u w=6u l=1u
X4 VDD VDD VDD VDD sg13_lv_pmos ad=2.04p pd=12.68u as=0.81233n ps=1.61766m w=6u l=1u
X5 iqmod_mfb_lpf_ota_core_inv_NF6_0.vout iqmod_mfb_lpf_ota_core_inv_NF6_2.vin VSS VSS sg13_lv_nmos ad=0.19p pd=1.38u as=0.19p ps=1.38u w=1u l=1u
X6 VSS VSS VSS VSS sg13_lv_nmos ad=0.19p pd=1.38u as=0.52306n ps=0.95826m w=1u l=1u
X7 VDD iqmod_mfb_lpf_ota_core_spdt_switch_0.do_spdt_ctrl_n iqmod_mfb_lpf_ota_core_spdt_switch_0.iqmod_mfb_lpf_ota_core_spdt_switch_inv_0.vout VDD sg13_lv_pmos ad=1.14p pd=6.38u as=1.14p ps=6.38u w=6u l=0.13u
X8 VDD voutp iqmod_mfb_lpf_ota_core_tg_1.v_a VDD sg13_lv_pmos ad=1.14p pd=6.38u as=1.14p ps=6.38u w=6u l=1u
X9 iqmod_mfb_lpf_ota_core_tg_1.v_a voutp VDD VDD sg13_lv_pmos ad=1.14p pd=6.38u as=1.14p ps=6.38u w=6u l=1u
X10 VSS voutp iqmod_mfb_lpf_ota_core_tg_1.v_a VSS sg13_lv_nmos ad=0.19p pd=1.38u as=0.19p ps=1.38u w=1u l=1u
X11 voutp iqmod_mfb_lpf_ota_core_inv_NF6_0.vout VSS VSS sg13_lv_nmos ad=0.19p pd=1.38u as=0.19p ps=1.38u w=1u l=1u
X12 voutp iqmod_mfb_lpf_ota_core_inv_NF10_0.vin VSS VSS sg13_lv_nmos ad=0.19p pd=1.38u as=0.19p ps=1.38u w=1u l=1u
X13 VDD voutp iqmod_mfb_lpf_ota_core_tg_1.v_a VDD sg13_lv_pmos ad=1.14p pd=6.38u as=1.14p ps=6.38u w=6u l=1u
X14 iqmod_mfb_lpf_ota_core_inv_NF6_0.vout di_ota_en iqmod_mfb_lpf_ota_core_inv_NF10_0.vout VSS sg13_lv_nmos ad=0.19p pd=1.38u as=0.34p ps=2.68u w=1u l=0.13u
X15 VDD VDD VDD VDD sg13_lv_pmos ad=1.14p pd=6.38u as=0 ps=0 w=6u l=0.13u
X16 VSS di_ota_en iqmod_mfb_lpf_ota_core_spdt_switch_0.do_spdt_ctrl_n VSS sg13_lv_nmos ad=0.19p pd=1.38u as=0.19p ps=1.38u w=1u l=0.13u
X17 VSS iqmod_mfb_lpf_ota_core_inv_NF10_0.vin iqmod_mfb_lpf_ota_core_inv_NF10_0.vout VSS sg13_lv_nmos ad=0.19p pd=1.38u as=0.19p ps=1.38u w=1u l=1u
X18 VDD voutp iqmod_mfb_lpf_ota_core_tg_1.v_a VDD sg13_lv_pmos ad=1.14p pd=6.38u as=1.14p ps=6.38u w=6u l=1u
X19 voutp iqmod_mfb_lpf_ota_core_inv_NF6_0.vout VDD VDD sg13_lv_pmos ad=1.14p pd=6.38u as=1.14p ps=6.38u w=6u l=1u
X20 VSS iqmod_mfb_lpf_ota_core_inv_NF6_0.vout voutp VSS sg13_lv_nmos ad=0.19p pd=1.38u as=0.19p ps=1.38u w=1u l=1u
X21 iqmod_mfb_lpf_ota_core_inv_NF6_0.vout iqmod_mfb_lpf_ota_core_inv_NF10_0.vout VDD VDD sg13_lv_pmos ad=1.14p pd=6.38u as=1.14p ps=6.38u w=6u l=1u
X22 VDD iqmod_mfb_lpf_ota_core_inv_NF6_0.vout voutp VDD sg13_lv_pmos ad=1.14p pd=6.38u as=1.14p ps=6.38u w=6u l=1u
X23 iqmod_mfb_lpf_ota_core_inv_NF6_0.vout iqmod_mfb_lpf_ota_core_inv_NF6_2.vin VSS VSS sg13_lv_nmos ad=0.19p pd=1.38u as=0.19p ps=1.38u w=1u l=1u
X24 VSS iqmod_mfb_lpf_ota_core_inv_NF10_0.vin voutp VSS sg13_lv_nmos ad=0.19p pd=1.38u as=0.19p ps=1.38u w=1u l=1u
X25 iqmod_mfb_lpf_ota_core_tg_1.v_a voutp VSS VSS sg13_lv_nmos ad=0.19p pd=1.38u as=0.19p ps=1.38u w=1u l=1u
X26 iqmod_mfb_lpf_ota_core_inv_NF10_0.vout di_ota_en iqmod_mfb_lpf_ota_core_inv_NF6_0.vout VSS sg13_lv_nmos ad=0.19p pd=1.38u as=0.19p ps=1.38u w=1u l=0.13u
X27 iqmod_mfb_lpf_ota_core_tg_1.v_a voutp VSS VSS sg13_lv_nmos ad=0.19p pd=1.38u as=0.19p ps=1.38u w=1u l=1u
X28 vinp iqmod_mfb_lpf_ota_core_spdt_switch_0.do_spdt_ctrl_n iqmod_mfb_lpf_ota_core_inv_NF10_0.vin VDD sg13_lv_pmos ad=1.14p pd=6.38u as=1.14p ps=6.38u w=6u l=0.13u
X29 iqmod_mfb_lpf_ota_core_inv_NF10_0.vin iqmod_mfb_lpf_ota_core_spdt_switch_0.iqmod_mfb_lpf_ota_core_spdt_switch_inv_0.vout VDD VDD sg13_lv_pmos ad=1.14p pd=6.38u as=2.04p ps=12.68u w=6u l=0.13u
X30 iqmod_mfb_lpf_ota_core_inv_NF10_0.vout iqmod_mfb_lpf_ota_core_spdt_switch_0.do_spdt_ctrl_n iqmod_mfb_lpf_ota_core_inv_NF6_0.vout VDD sg13_lv_pmos ad=1.14p pd=6.38u as=1.14p ps=6.38u w=6u l=0.13u
X31 voutp iqmod_mfb_lpf_ota_core_inv_NF10_0.vin VDD VDD sg13_lv_pmos ad=1.14p pd=6.38u as=1.14p ps=6.38u w=6u l=1u
X32 VDD voutp iqmod_mfb_lpf_ota_core_tg_1.v_a VDD sg13_lv_pmos ad=1.14p pd=6.38u as=1.14p ps=6.38u w=6u l=1u
X33 VSS VSS VSS VSS sg13_lv_nmos ad=0.19p pd=1.38u as=0 ps=0 w=1u l=0.13u
X34 iqmod_mfb_lpf_ota_core_inv_NF10_0.vout iqmod_mfb_lpf_ota_core_inv_NF10_0.vin VDD VDD sg13_lv_pmos ad=1.14p pd=6.38u as=1.14p ps=6.38u w=6u l=1u
X35 iqmod_mfb_lpf_ota_core_inv_NF6_0.vout iqmod_mfb_lpf_ota_core_spdt_switch_0.do_spdt_ctrl_n iqmod_mfb_lpf_ota_core_inv_NF10_0.vout VDD sg13_lv_pmos ad=1.14p pd=6.38u as=2.04p ps=12.68u w=6u l=0.13u
X36 iqmod_mfb_lpf_ota_core_inv_NF6_0.vout di_ota_en iqmod_mfb_lpf_ota_core_inv_NF10_0.vout VSS sg13_lv_nmos ad=0.19p pd=1.38u as=0.19p ps=1.38u w=1u l=0.13u
X37 VSS VSS VSS VSS sg13_lv_nmos ad=0.19p pd=1.38u as=0 ps=0 w=1u l=1u
X38 VDD VDD VDD VDD sg13_lv_pmos ad=1.14p pd=6.38u as=0 ps=0 w=6u l=1u
X39 VSS iqmod_mfb_lpf_ota_core_inv_NF6_0.vout voutp VSS sg13_lv_nmos ad=0.19p pd=1.38u as=0.19p ps=1.38u w=1u l=1u
X40 VDD VDD VDD VDD sg13_lv_pmos ad=1.14p pd=6.38u as=0 ps=0 w=6u l=1u
X41 iqmod_mfb_lpf_ota_core_tg_1.v_a iqmod_mfb_lpf_ota_core_spdt_switch_0.do_spdt_ctrl_n iqmod_mfb_lpf_ota_core_inv_NF6_2.vin VDD sg13_lv_pmos ad=1.14p pd=6.38u as=1.14p ps=6.38u w=6u l=0.13u
X42 VDD VDD VDD VDD sg13_lv_pmos ad=2.04p pd=12.68u as=0 ps=0 w=6u l=1u
X43 iqmod_mfb_lpf_ota_core_tg_1.v_a voutp VSS VSS sg13_lv_nmos ad=0.19p pd=1.38u as=0.19p ps=1.38u w=1u l=1u
X44 VSS iqmod_mfb_lpf_ota_core_inv_NF10_0.vin voutp VSS sg13_lv_nmos ad=0.19p pd=1.38u as=0.19p ps=1.38u w=1u l=1u
X45 VSS voutp iqmod_mfb_lpf_ota_core_tg_1.v_a VSS sg13_lv_nmos ad=0.19p pd=1.38u as=0.19p ps=1.38u w=1u l=1u
X46 voutp iqmod_mfb_lpf_ota_core_inv_NF10_0.vin VSS VSS sg13_lv_nmos ad=0.19p pd=1.38u as=0.19p ps=1.38u w=1u l=1u
X47 VDD iqmod_mfb_lpf_ota_core_tg_1.v_a iqmod_mfb_lpf_ota_core_inv_NF6_2.vin VDD sg13_lv_pmos ad=1.14p pd=6.38u as=1.14p ps=6.38u w=6u l=1u
X48 VDD iqmod_mfb_lpf_ota_core_inv_NF6_0.vout voutp VDD sg13_lv_pmos ad=1.14p pd=6.38u as=1.14p ps=6.38u w=6u l=1u
X49 VDD iqmod_mfb_lpf_ota_core_inv_NF6_0.vout voutp VDD sg13_lv_pmos ad=1.14p pd=6.38u as=1.14p ps=6.38u w=6u l=1u
X50 iqmod_mfb_lpf_ota_core_inv_NF10_0.vout di_ota_en iqmod_mfb_lpf_ota_core_inv_NF6_0.vout VSS sg13_lv_nmos ad=0.19p pd=1.38u as=0.19p ps=1.38u w=1u l=0.13u
X51 VDD iqmod_mfb_lpf_ota_core_spdt_switch_0.iqmod_mfb_lpf_ota_core_spdt_switch_inv_0.vout iqmod_mfb_lpf_ota_core_inv_NF10_0.vin VDD sg13_lv_pmos ad=1.14p pd=6.38u as=1.14p ps=6.38u w=6u l=0.13u
X52 VSS VSS VSS VSS sg13_lv_nmos ad=0.34p pd=2.68u as=0 ps=0 w=1u l=1u
X53 voutp iqmod_mfb_lpf_ota_core_inv_NF10_0.vin VSS VSS sg13_lv_nmos ad=0.19p pd=1.38u as=0.19p ps=1.38u w=1u l=1u
X54 voutp iqmod_mfb_lpf_ota_core_inv_NF6_0.vout VDD VDD sg13_lv_pmos ad=1.14p pd=6.38u as=1.14p ps=6.38u w=6u l=1u
X55 iqmod_mfb_lpf_ota_core_inv_NF6_2.vin iqmod_mfb_lpf_ota_core_spdt_switch_0.do_spdt_ctrl_n iqmod_mfb_lpf_ota_core_tg_1.v_a VDD sg13_lv_pmos ad=1.14p pd=6.38u as=2.04p ps=12.68u w=6u l=0.13u
X56 VSS iqmod_mfb_lpf_ota_core_inv_NF10_0.vin iqmod_mfb_lpf_ota_core_inv_NF10_0.vout VSS sg13_lv_nmos ad=0.19p pd=1.38u as=0.19p ps=1.38u w=1u l=1u
X57 voutp iqmod_mfb_lpf_ota_core_inv_NF10_0.vin VDD VDD sg13_lv_pmos ad=1.14p pd=6.38u as=1.14p ps=6.38u w=6u l=1u
X58 VSS VSS VSS VSS sg13_lv_nmos ad=0.19p pd=1.38u as=0 ps=0 w=1u l=1u
X59 iqmod_mfb_lpf_ota_core_inv_NF10_0.vout iqmod_mfb_lpf_ota_core_inv_NF10_0.vin VDD VDD sg13_lv_pmos ad=1.14p pd=6.38u as=1.14p ps=6.38u w=6u l=1u
X60 VDD iqmod_mfb_lpf_ota_core_inv_NF10_0.vin voutp VDD sg13_lv_pmos ad=1.14p pd=6.38u as=1.14p ps=6.38u w=6u l=1u
X61 iqmod_mfb_lpf_ota_core_tg_1.v_a voutp VDD VDD sg13_lv_pmos ad=1.14p pd=6.38u as=1.14p ps=6.38u w=6u l=1u
X62 VDD iqmod_mfb_lpf_ota_core_inv_NF10_0.vin iqmod_mfb_lpf_ota_core_inv_NF10_0.vout VDD sg13_lv_pmos ad=1.14p pd=6.38u as=1.14p ps=6.38u w=6u l=1u
X63 voutp iqmod_mfb_lpf_ota_core_inv_NF10_0.vin VDD VDD sg13_lv_pmos ad=1.14p pd=6.38u as=1.14p ps=6.38u w=6u l=1u
X64 VDD voutp iqmod_mfb_lpf_ota_core_tg_1.v_a VDD sg13_lv_pmos ad=1.14p pd=6.38u as=1.14p ps=6.38u w=6u l=1u
X65 iqmod_mfb_lpf_ota_core_inv_NF10_0.vout iqmod_mfb_lpf_ota_core_inv_NF10_0.vin VDD VDD sg13_lv_pmos ad=1.14p pd=6.38u as=1.14p ps=6.38u w=6u l=1u
X66 iqmod_mfb_lpf_ota_core_inv_NF6_0.vout di_ota_en iqmod_mfb_lpf_ota_core_inv_NF10_0.vout VSS sg13_lv_nmos ad=0.19p pd=1.38u as=0.19p ps=1.38u w=1u l=0.13u
X67 iqmod_mfb_lpf_ota_core_tg_1.v_a voutp VSS VSS sg13_lv_nmos ad=0.19p pd=1.38u as=0.19p ps=1.38u w=1u l=1u
X68 vinp iqmod_mfb_lpf_ota_core_spdt_switch_0.iqmod_mfb_lpf_ota_core_spdt_switch_inv_0.vout iqmod_mfb_lpf_ota_core_inv_NF10_0.vin VSS sg13_lv_nmos ad=0.19p pd=1.38u as=0.19p ps=1.38u w=1u l=0.13u
X69 iqmod_mfb_lpf_ota_core_inv_NF10_0.vout iqmod_mfb_lpf_ota_core_inv_NF10_0.vin VSS VSS sg13_lv_nmos ad=0.19p pd=1.38u as=0.19p ps=1.38u w=1u l=1u
X70 VSS iqmod_mfb_lpf_ota_core_inv_NF10_0.vin voutp VSS sg13_lv_nmos ad=0.19p pd=1.38u as=0.19p ps=1.38u w=1u l=1u
X71 VDD VDD VDD VDD sg13_lv_pmos ad=1.14p pd=6.38u as=0 ps=0 w=6u l=0.13u
X72 VDD VDD VDD VDD sg13_lv_pmos ad=1.14p pd=6.38u as=0 ps=0 w=6u l=1u
X73 iqmod_mfb_lpf_ota_core_tg_1.v_a voutp VSS VSS sg13_lv_nmos ad=0.19p pd=1.38u as=0.19p ps=1.38u w=1u l=1u
X74 voutp iqmod_mfb_lpf_ota_core_inv_NF6_0.vout VSS VSS sg13_lv_nmos ad=0.19p pd=1.38u as=0.19p ps=1.38u w=1u l=1u
X75 voutp iqmod_mfb_lpf_ota_core_inv_NF10_0.vin VSS VSS sg13_lv_nmos ad=0.19p pd=1.38u as=0.19p ps=1.38u w=1u l=1u
X76 iqmod_mfb_lpf_ota_core_inv_NF6_2.vin iqmod_mfb_lpf_ota_core_tg_1.v_a VDD VDD sg13_lv_pmos ad=1.14p pd=6.38u as=1.14p ps=6.38u w=6u l=1u
X77 VDD iqmod_mfb_lpf_ota_core_tg_1.v_a iqmod_mfb_lpf_ota_core_inv_NF6_2.vin VDD sg13_lv_pmos ad=1.14p pd=6.38u as=1.14p ps=6.38u w=6u l=1u
X78 iqmod_mfb_lpf_ota_core_inv_NF10_0.vout di_ota_en iqmod_mfb_lpf_ota_core_inv_NF6_0.vout VSS sg13_lv_nmos ad=0.34p pd=2.68u as=0.19p ps=1.38u w=1u l=0.13u
X79 iqmod_mfb_lpf_ota_core_tg_1.v_a voutp VSS VSS sg13_lv_nmos ad=0.19p pd=1.38u as=0.19p ps=1.38u w=1u l=1u
X80 VDD VDD VDD VDD sg13_lv_pmos ad=1.14p pd=6.38u as=0 ps=0 w=6u l=1u
X81 iqmod_mfb_lpf_ota_core_inv_NF10_0.vin iqmod_mfb_lpf_ota_core_spdt_switch_0.iqmod_mfb_lpf_ota_core_spdt_switch_inv_0.vout vinp VSS sg13_lv_nmos ad=0.19p pd=1.38u as=0.19p ps=1.38u w=1u l=0.13u
X82 VSS VSS VSS VSS sg13_lv_nmos ad=0.34p pd=2.68u as=0 ps=0 w=1u l=1u
X83 VDD VDD VDD VDD sg13_lv_pmos ad=2.04p pd=12.68u as=0 ps=0 w=6u l=0.13u
X84 VSS iqmod_mfb_lpf_ota_core_inv_NF6_2.vin iqmod_mfb_lpf_ota_core_inv_NF6_0.vout VSS sg13_lv_nmos ad=0.19p pd=1.38u as=0.19p ps=1.38u w=1u l=1u
X85 iqmod_mfb_lpf_ota_core_inv_NF6_0.vout iqmod_mfb_lpf_ota_core_inv_NF10_0.vout VSS VSS sg13_lv_nmos ad=0.19p pd=1.38u as=0.19p ps=1.38u w=1u l=1u
X86 vinp iqmod_mfb_lpf_ota_core_spdt_switch_0.iqmod_mfb_lpf_ota_core_spdt_switch_inv_0.vout iqmod_mfb_lpf_ota_core_inv_NF10_0.vin VSS sg13_lv_nmos ad=0.19p pd=1.38u as=0.19p ps=1.38u w=1u l=0.13u
X87 voutp iqmod_mfb_lpf_ota_core_inv_NF10_0.vin VDD VDD sg13_lv_pmos ad=1.14p pd=6.38u as=1.14p ps=6.38u w=6u l=1u
X88 iqmod_mfb_lpf_ota_core_inv_NF10_0.vout iqmod_mfb_lpf_ota_core_inv_NF10_0.vin VDD VDD sg13_lv_pmos ad=1.14p pd=6.38u as=1.14p ps=6.38u w=6u l=1u
X89 VSS voutp iqmod_mfb_lpf_ota_core_tg_1.v_a VSS sg13_lv_nmos ad=0.19p pd=1.38u as=0.19p ps=1.38u w=1u l=1u
X90 voutp iqmod_mfb_lpf_ota_core_inv_NF10_0.vin VSS VSS sg13_lv_nmos ad=0.19p pd=1.38u as=0.19p ps=1.38u w=1u l=1u
X91 iqmod_mfb_lpf_ota_core_tg_1.v_a voutp VDD VDD sg13_lv_pmos ad=1.14p pd=6.38u as=1.14p ps=6.38u w=6u l=1u
X92 VDD iqmod_mfb_lpf_ota_core_inv_NF10_0.vin voutp VDD sg13_lv_pmos ad=1.14p pd=6.38u as=1.14p ps=6.38u w=6u l=1u
X93 vinp iqmod_mfb_lpf_ota_core_spdt_switch_0.do_spdt_ctrl_n iqmod_mfb_lpf_ota_core_inv_NF10_0.vin VDD sg13_lv_pmos ad=1.14p pd=6.38u as=1.14p ps=6.38u w=6u l=0.13u
X94 iqmod_mfb_lpf_ota_core_inv_NF10_0.vin iqmod_mfb_lpf_ota_core_spdt_switch_0.do_spdt_ctrl_n vinp VDD sg13_lv_pmos ad=1.14p pd=6.38u as=1.14p ps=6.38u w=6u l=0.13u
X95 VDD iqmod_mfb_lpf_ota_core_inv_NF10_0.vin iqmod_mfb_lpf_ota_core_inv_NF10_0.vout VDD sg13_lv_pmos ad=1.14p pd=6.38u as=1.14p ps=6.38u w=6u l=1u
X96 iqmod_mfb_lpf_ota_core_inv_NF10_0.vout iqmod_mfb_lpf_ota_core_spdt_switch_0.do_spdt_ctrl_n iqmod_mfb_lpf_ota_core_inv_NF6_0.vout VDD sg13_lv_pmos ad=1.14p pd=6.38u as=1.14p ps=6.38u w=6u l=0.13u
X97 iqmod_mfb_lpf_ota_core_inv_NF6_0.vout iqmod_mfb_lpf_ota_core_spdt_switch_0.do_spdt_ctrl_n iqmod_mfb_lpf_ota_core_inv_NF10_0.vout VDD sg13_lv_pmos ad=1.14p pd=6.38u as=1.14p ps=6.38u w=6u l=0.13u
X98 voutp iqmod_mfb_lpf_ota_core_inv_NF10_0.vin VSS VSS sg13_lv_nmos ad=0.19p pd=1.38u as=0.19p ps=1.38u w=1u l=1u
X99 VSS iqmod_mfb_lpf_ota_core_inv_NF6_0.vout voutp VSS sg13_lv_nmos ad=0.19p pd=1.38u as=0.19p ps=1.38u w=1u l=1u
X100 VSS VSS VSS VSS sg13_lv_nmos ad=0.34p pd=2.68u as=0 ps=0 w=1u l=1u
X101 iqmod_mfb_lpf_ota_core_inv_NF6_0.vout iqmod_mfb_lpf_ota_core_inv_NF6_2.vin VDD VDD sg13_lv_pmos ad=1.14p pd=6.38u as=1.14p ps=6.38u w=6u l=1u
X102 iqmod_mfb_lpf_ota_core_inv_NF10_0.vin iqmod_mfb_lpf_ota_core_spdt_switch_0.iqmod_mfb_lpf_ota_core_spdt_switch_inv_0.vout vinp VSS sg13_lv_nmos ad=0.19p pd=1.38u as=0.19p ps=1.38u w=1u l=0.13u
X103 iqmod_mfb_lpf_ota_core_inv_NF10_0.vout iqmod_mfb_lpf_ota_core_inv_NF10_0.vin VSS VSS sg13_lv_nmos ad=0.19p pd=1.38u as=0.19p ps=1.38u w=1u l=1u
X104 iqmod_mfb_lpf_ota_core_inv_NF6_0.vout iqmod_mfb_lpf_ota_core_inv_NF6_2.vin VDD VDD sg13_lv_pmos ad=1.14p pd=6.38u as=1.14p ps=6.38u w=6u l=1u
X105 VDD VDD VDD VDD sg13_lv_pmos ad=2.04p pd=12.68u as=0 ps=0 w=6u l=1u
X106 iqmod_mfb_lpf_ota_core_tg_1.v_a voutp VDD VDD sg13_lv_pmos ad=1.14p pd=6.38u as=1.14p ps=6.38u w=6u l=1u
X107 voutp iqmod_mfb_lpf_ota_core_inv_NF10_0.vin VDD VDD sg13_lv_pmos ad=1.14p pd=6.38u as=1.14p ps=6.38u w=6u l=1u
X108 VDD iqmod_mfb_lpf_ota_core_inv_NF6_2.vin iqmod_mfb_lpf_ota_core_inv_NF6_0.vout VDD sg13_lv_pmos ad=1.14p pd=6.38u as=1.14p ps=6.38u w=6u l=1u
X109 iqmod_mfb_lpf_ota_core_inv_NF6_2.vin iqmod_mfb_lpf_ota_core_tg_1.v_a VDD VDD sg13_lv_pmos ad=1.14p pd=6.38u as=1.14p ps=6.38u w=6u l=1u
X110 iqmod_mfb_lpf_ota_core_tg_1.v_a voutp VSS VSS sg13_lv_nmos ad=0.19p pd=1.38u as=0.19p ps=1.38u w=1u l=1u
X111 iqmod_mfb_lpf_ota_core_inv_NF6_2.vin iqmod_mfb_lpf_ota_core_spdt_switch_0.do_spdt_ctrl_n iqmod_mfb_lpf_ota_core_tg_1.v_a VDD sg13_lv_pmos ad=1.14p pd=6.38u as=1.14p ps=6.38u w=6u l=0.13u
X112 iqmod_mfb_lpf_ota_core_inv_NF6_0.vout iqmod_mfb_lpf_ota_core_inv_NF6_2.vin VSS VSS sg13_lv_nmos ad=0.19p pd=1.38u as=0.19p ps=1.38u w=1u l=1u
X113 VSS iqmod_mfb_lpf_ota_core_inv_NF10_0.vout iqmod_mfb_lpf_ota_core_inv_NF6_0.vout VSS sg13_lv_nmos ad=0.19p pd=1.38u as=0.19p ps=1.38u w=1u l=1u
X114 voutp iqmod_mfb_lpf_ota_core_inv_NF6_0.vout VDD VDD sg13_lv_pmos ad=1.14p pd=6.38u as=1.14p ps=6.38u w=6u l=1u
X115 iqmod_mfb_lpf_ota_core_inv_NF10_0.vin iqmod_mfb_lpf_ota_core_spdt_switch_0.iqmod_mfb_lpf_ota_core_spdt_switch_inv_0.vout VDD VDD sg13_lv_pmos ad=1.14p pd=6.38u as=1.14p ps=6.38u w=6u l=0.13u
X116 VDD iqmod_mfb_lpf_ota_core_inv_NF10_0.vout iqmod_mfb_lpf_ota_core_inv_NF6_0.vout VDD sg13_lv_pmos ad=1.14p pd=6.38u as=1.14p ps=6.38u w=6u l=1u
X117 VSS iqmod_mfb_lpf_ota_core_inv_NF10_0.vin voutp VSS sg13_lv_nmos ad=0.19p pd=1.38u as=0.19p ps=1.38u w=1u l=1u
X118 iqmod_mfb_lpf_ota_core_tg_1.v_a iqmod_mfb_lpf_ota_core_spdt_switch_0.do_spdt_ctrl_n iqmod_mfb_lpf_ota_core_inv_NF6_2.vin VDD sg13_lv_pmos ad=1.14p pd=6.38u as=1.14p ps=6.38u w=6u l=0.13u
X119 iqmod_mfb_lpf_ota_core_inv_NF10_0.vin iqmod_mfb_lpf_ota_core_spdt_switch_0.iqmod_mfb_lpf_ota_core_spdt_switch_inv_0.vout vinp VSS sg13_lv_nmos ad=0.19p pd=1.38u as=0.34p ps=2.68u w=1u l=0.13u
X120 vinp iqmod_mfb_lpf_ota_core_spdt_switch_0.iqmod_mfb_lpf_ota_core_spdt_switch_inv_0.vout iqmod_mfb_lpf_ota_core_inv_NF10_0.vin VSS sg13_lv_nmos ad=0.34p pd=2.68u as=0.19p ps=1.38u w=1u l=0.13u
X121 voutp iqmod_mfb_lpf_ota_core_inv_NF6_0.vout VSS VSS sg13_lv_nmos ad=0.19p pd=1.38u as=0.19p ps=1.38u w=1u l=1u
X122 iqmod_mfb_lpf_ota_core_tg_1.v_a voutp VDD VDD sg13_lv_pmos ad=1.14p pd=6.38u as=1.14p ps=6.38u w=6u l=1u
X123 VSS VSS VSS VSS sg13_lv_nmos ad=0.34p pd=2.68u as=0 ps=0 w=1u l=1u
X124 VSS iqmod_mfb_lpf_ota_core_inv_NF6_0.vout voutp VSS sg13_lv_nmos ad=0.19p pd=1.38u as=0.19p ps=1.38u w=1u l=1u
X125 VDD VDD VDD VDD sg13_lv_pmos ad=2.04p pd=12.68u as=0 ps=0 w=6u l=1u
X126 VDD iqmod_mfb_lpf_ota_core_inv_NF10_0.vin voutp VDD sg13_lv_pmos ad=1.14p pd=6.38u as=1.14p ps=6.38u w=6u l=1u
X127 iqmod_mfb_lpf_ota_core_tg_1.v_a voutp VDD VDD sg13_lv_pmos ad=1.14p pd=6.38u as=1.14p ps=6.38u w=6u l=1u
X128 VDD voutp iqmod_mfb_lpf_ota_core_tg_1.v_a VDD sg13_lv_pmos ad=1.14p pd=6.38u as=1.14p ps=6.38u w=6u l=1u
X129 VSS voutp iqmod_mfb_lpf_ota_core_tg_1.v_a VSS sg13_lv_nmos ad=0.19p pd=1.38u as=0.19p ps=1.38u w=1u l=1u
X130 VSS iqmod_mfb_lpf_ota_core_inv_NF10_0.vin iqmod_mfb_lpf_ota_core_inv_NF10_0.vout VSS sg13_lv_nmos ad=0.19p pd=1.38u as=0.19p ps=1.38u w=1u l=1u
X131 voutp iqmod_mfb_lpf_ota_core_inv_NF6_0.vout VDD VDD sg13_lv_pmos ad=1.14p pd=6.38u as=1.14p ps=6.38u w=6u l=1u
X132 voutp iqmod_mfb_lpf_ota_core_inv_NF6_0.vout VSS VSS sg13_lv_nmos ad=0.19p pd=1.38u as=0.19p ps=1.38u w=1u l=1u
X133 VSS voutp iqmod_mfb_lpf_ota_core_tg_1.v_a VSS sg13_lv_nmos ad=0.19p pd=1.38u as=0.19p ps=1.38u w=1u l=1u
X134 voutp iqmod_mfb_lpf_ota_core_inv_NF10_0.vin VSS VSS sg13_lv_nmos ad=0.19p pd=1.38u as=0.19p ps=1.38u w=1u l=1u
X135 VDD VDD VDD VDD sg13_lv_pmos ad=2.04p pd=12.68u as=0 ps=0 w=6u l=1u
X136 voutp iqmod_mfb_lpf_ota_core_inv_NF10_0.vin VSS VSS sg13_lv_nmos ad=0.19p pd=1.38u as=0.19p ps=1.38u w=1u l=1u
X137 iqmod_mfb_lpf_ota_core_inv_NF6_0.vout iqmod_mfb_lpf_ota_core_inv_NF6_2.vin VDD VDD sg13_lv_pmos ad=1.14p pd=6.38u as=1.14p ps=6.38u w=6u l=1u
X138 VDD iqmod_mfb_lpf_ota_core_inv_NF6_2.vin iqmod_mfb_lpf_ota_core_inv_NF6_0.vout VDD sg13_lv_pmos ad=1.14p pd=6.38u as=1.14p ps=6.38u w=6u l=1u
X139 VSS iqmod_mfb_lpf_ota_core_inv_NF6_2.vin iqmod_mfb_lpf_ota_core_inv_NF6_0.vout VSS sg13_lv_nmos ad=0.19p pd=1.38u as=0.19p ps=1.38u w=1u l=1u
X140 iqmod_mfb_lpf_ota_core_inv_NF6_0.vout iqmod_mfb_lpf_ota_core_inv_NF10_0.vout VSS VSS sg13_lv_nmos ad=0.19p pd=1.38u as=0.19p ps=1.38u w=1u l=1u
X141 VDD VDD VDD VDD sg13_lv_pmos ad=2.04p pd=12.68u as=0 ps=0 w=6u l=0.13u
X142 iqmod_mfb_lpf_ota_core_inv_NF6_2.vin di_ota_en iqmod_mfb_lpf_ota_core_tg_1.v_a VSS sg13_lv_nmos ad=0.19p pd=1.38u as=0.34p ps=2.68u w=1u l=0.13u
X143 VDD iqmod_mfb_lpf_ota_core_inv_NF6_0.vout voutp VDD sg13_lv_pmos ad=1.14p pd=6.38u as=1.14p ps=6.38u w=6u l=1u
X144 VSS iqmod_mfb_lpf_ota_core_inv_NF6_0.vout voutp VSS sg13_lv_nmos ad=0.19p pd=1.38u as=0.19p ps=1.38u w=1u l=1u
X145 VSS iqmod_mfb_lpf_ota_core_inv_NF10_0.vin voutp VSS sg13_lv_nmos ad=0.19p pd=1.38u as=0.19p ps=1.38u w=1u l=1u
X146 voutp iqmod_mfb_lpf_ota_core_inv_NF6_0.vout VDD VDD sg13_lv_pmos ad=1.14p pd=6.38u as=1.14p ps=6.38u w=6u l=1u
X147 voutp iqmod_mfb_lpf_ota_core_inv_NF6_0.vout VDD VDD sg13_lv_pmos ad=1.14p pd=6.38u as=1.14p ps=6.38u w=6u l=1u
X148 iqmod_mfb_lpf_ota_core_inv_NF10_0.vout iqmod_mfb_lpf_ota_core_inv_NF10_0.vin VSS VSS sg13_lv_nmos ad=0.19p pd=1.38u as=0.19p ps=1.38u w=1u l=1u
X149 voutp iqmod_mfb_lpf_ota_core_inv_NF6_0.vout VSS VSS sg13_lv_nmos ad=0.19p pd=1.38u as=0.19p ps=1.38u w=1u l=1u
X150 iqmod_mfb_lpf_ota_core_tg_1.v_a voutp VDD VDD sg13_lv_pmos ad=1.14p pd=6.38u as=1.14p ps=6.38u w=6u l=1u
X151 VSS iqmod_mfb_lpf_ota_core_tg_1.v_a iqmod_mfb_lpf_ota_core_inv_NF6_2.vin VSS sg13_lv_nmos ad=0.19p pd=1.38u as=0.19p ps=1.38u w=1u l=1u
X152 iqmod_mfb_lpf_ota_core_spdt_switch_0.do_spdt_ctrl_n di_ota_en VDD VDD sg13_lv_pmos ad=1.14p pd=6.38u as=1.14p ps=6.38u w=6u l=0.13u
X153 VSS iqmod_mfb_lpf_ota_core_inv_NF10_0.vin voutp VSS sg13_lv_nmos ad=0.19p pd=1.38u as=0.19p ps=1.38u w=1u l=1u
X154 VSS iqmod_mfb_lpf_ota_core_inv_NF10_0.vout iqmod_mfb_lpf_ota_core_inv_NF6_0.vout VSS sg13_lv_nmos ad=0.19p pd=1.38u as=0.19p ps=1.38u w=1u l=1u
X155 voutp iqmod_mfb_lpf_ota_core_inv_NF10_0.vin VDD VDD sg13_lv_pmos ad=1.14p pd=6.38u as=1.14p ps=6.38u w=6u l=1u
X156 VDD voutp iqmod_mfb_lpf_ota_core_tg_1.v_a VDD sg13_lv_pmos ad=1.14p pd=6.38u as=1.14p ps=6.38u w=6u l=1u
X157 iqmod_mfb_lpf_ota_core_inv_NF10_0.vout iqmod_mfb_lpf_ota_core_inv_NF10_0.vin VSS VSS sg13_lv_nmos ad=0.19p pd=1.38u as=0.19p ps=1.38u w=1u l=1u
X158 iqmod_mfb_lpf_ota_core_tg_1.v_a voutp VSS VSS sg13_lv_nmos ad=0.19p pd=1.38u as=0.19p ps=1.38u w=1u l=1u
X159 VDD iqmod_mfb_lpf_ota_core_inv_NF10_0.vin voutp VDD sg13_lv_pmos ad=1.14p pd=6.38u as=1.14p ps=6.38u w=6u l=1u
X160 iqmod_mfb_lpf_ota_core_tg_1.v_a voutp VDD VDD sg13_lv_pmos ad=1.14p pd=6.38u as=1.14p ps=6.38u w=6u l=1u
X161 VSS voutp iqmod_mfb_lpf_ota_core_tg_1.v_a VSS sg13_lv_nmos ad=0.19p pd=1.38u as=0.19p ps=1.38u w=1u l=1u
X162 VSS VSS VSS VSS sg13_lv_nmos ad=0.34p pd=2.68u as=0 ps=0 w=1u l=1u
X163 VDD VDD VDD VDD sg13_lv_pmos ad=2.04p pd=12.68u as=0 ps=0 w=6u l=1u
X164 VDD voutp iqmod_mfb_lpf_ota_core_tg_1.v_a VDD sg13_lv_pmos ad=1.14p pd=6.38u as=1.14p ps=6.38u w=6u l=1u
X165 VSS VSS VSS VSS sg13_lv_nmos ad=0.19p pd=1.38u as=0 ps=0 w=1u l=1u
X166 VDD iqmod_mfb_lpf_ota_core_inv_NF6_0.vout voutp VDD sg13_lv_pmos ad=1.14p pd=6.38u as=1.14p ps=6.38u w=6u l=1u
X167 iqmod_mfb_lpf_ota_core_tg_1.v_a di_ota_en iqmod_mfb_lpf_ota_core_inv_NF6_2.vin VSS sg13_lv_nmos ad=0.19p pd=1.38u as=0.19p ps=1.38u w=1u l=0.13u
X168 vinp iqmod_mfb_lpf_ota_core_spdt_switch_0.do_spdt_ctrl_n iqmod_mfb_lpf_ota_core_inv_NF10_0.vin VDD sg13_lv_pmos ad=2.04p pd=12.68u as=1.14p ps=6.38u w=6u l=0.13u
X169 iqmod_mfb_lpf_ota_core_inv_NF10_0.vout iqmod_mfb_lpf_ota_core_spdt_switch_0.do_spdt_ctrl_n iqmod_mfb_lpf_ota_core_inv_NF6_0.vout VDD sg13_lv_pmos ad=2.04p pd=12.68u as=1.14p ps=6.38u w=6u l=0.13u
X170 iqmod_mfb_lpf_ota_core_inv_NF10_0.vin iqmod_mfb_lpf_ota_core_spdt_switch_0.do_spdt_ctrl_n vinp VDD sg13_lv_pmos ad=1.14p pd=6.38u as=1.14p ps=6.38u w=6u l=0.13u
X171 voutp iqmod_mfb_lpf_ota_core_inv_NF6_0.vout VDD VDD sg13_lv_pmos ad=1.14p pd=6.38u as=1.14p ps=6.38u w=6u l=1u
X172 VDD iqmod_mfb_lpf_ota_core_inv_NF6_2.vin iqmod_mfb_lpf_ota_core_inv_NF6_0.vout VDD sg13_lv_pmos ad=1.14p pd=6.38u as=1.14p ps=6.38u w=6u l=1u
X173 iqmod_mfb_lpf_ota_core_inv_NF6_0.vout iqmod_mfb_lpf_ota_core_inv_NF10_0.vout VSS VSS sg13_lv_nmos ad=0.19p pd=1.38u as=0.19p ps=1.38u w=1u l=1u
X174 VDD iqmod_mfb_lpf_ota_core_inv_NF10_0.vin voutp VDD sg13_lv_pmos ad=1.14p pd=6.38u as=1.14p ps=6.38u w=6u l=1u
X175 VDD iqmod_mfb_lpf_ota_core_inv_NF6_0.vout voutp VDD sg13_lv_pmos ad=1.14p pd=6.38u as=1.14p ps=6.38u w=6u l=1u
X176 voutp iqmod_mfb_lpf_ota_core_inv_NF6_0.vout VDD VDD sg13_lv_pmos ad=1.14p pd=6.38u as=1.14p ps=6.38u w=6u l=1u
X177 VSS voutp iqmod_mfb_lpf_ota_core_tg_1.v_a VSS sg13_lv_nmos ad=0.19p pd=1.38u as=0.19p ps=1.38u w=1u l=1u
X178 VSS iqmod_mfb_lpf_ota_core_inv_NF6_0.vout voutp VSS sg13_lv_nmos ad=0.19p pd=1.38u as=0.19p ps=1.38u w=1u l=1u
X179 VSS iqmod_mfb_lpf_ota_core_inv_NF10_0.vin iqmod_mfb_lpf_ota_core_inv_NF10_0.vout VSS sg13_lv_nmos ad=0.19p pd=1.38u as=0.19p ps=1.38u w=1u l=1u
X180 VSS iqmod_mfb_lpf_ota_core_inv_NF6_2.vin iqmod_mfb_lpf_ota_core_inv_NF6_0.vout VSS sg13_lv_nmos ad=0.19p pd=1.38u as=0.19p ps=1.38u w=1u l=1u
X181 VDD iqmod_mfb_lpf_ota_core_inv_NF6_0.vout voutp VDD sg13_lv_pmos ad=1.14p pd=6.38u as=1.14p ps=6.38u w=6u l=1u
X182 iqmod_mfb_lpf_ota_core_inv_NF6_2.vin iqmod_mfb_lpf_ota_core_tg_1.v_a VSS VSS sg13_lv_nmos ad=0.19p pd=1.38u as=0.19p ps=1.38u w=1u l=1u
X183 VDD VDD VDD VDD sg13_lv_pmos ad=1.14p pd=6.38u as=0 ps=0 w=6u l=1u
X184 VSS voutp iqmod_mfb_lpf_ota_core_tg_1.v_a VSS sg13_lv_nmos ad=0.19p pd=1.38u as=0.19p ps=1.38u w=1u l=1u
X185 voutp iqmod_mfb_lpf_ota_core_inv_NF10_0.vin VSS VSS sg13_lv_nmos ad=0.19p pd=1.38u as=0.19p ps=1.38u w=1u l=1u
X186 VDD iqmod_mfb_lpf_ota_core_inv_NF10_0.vin voutp VDD sg13_lv_pmos ad=1.14p pd=6.38u as=1.14p ps=6.38u w=6u l=1u
X187 VSS iqmod_mfb_lpf_ota_core_inv_NF10_0.vin voutp VSS sg13_lv_nmos ad=0.19p pd=1.38u as=0.19p ps=1.38u w=1u l=1u
X188 voutp iqmod_mfb_lpf_ota_core_inv_NF10_0.vin VDD VDD sg13_lv_pmos ad=1.14p pd=6.38u as=1.14p ps=6.38u w=6u l=1u
X189 VDD voutp iqmod_mfb_lpf_ota_core_tg_1.v_a VDD sg13_lv_pmos ad=1.14p pd=6.38u as=1.14p ps=6.38u w=6u l=1u
X190 VDD iqmod_mfb_lpf_ota_core_spdt_switch_0.iqmod_mfb_lpf_ota_core_spdt_switch_inv_0.vout iqmod_mfb_lpf_ota_core_inv_NF10_0.vin VDD sg13_lv_pmos ad=1.14p pd=6.38u as=1.14p ps=6.38u w=6u l=0.13u
X191 voutp iqmod_mfb_lpf_ota_core_inv_NF10_0.vin VDD VDD sg13_lv_pmos ad=1.14p pd=6.38u as=1.14p ps=6.38u w=6u l=1u
X192 iqmod_mfb_lpf_ota_core_inv_NF10_0.vout iqmod_mfb_lpf_ota_core_inv_NF10_0.vin VSS VSS sg13_lv_nmos ad=0.19p pd=1.38u as=0.19p ps=1.38u w=1u l=1u
X193 voutp iqmod_mfb_lpf_ota_core_inv_NF6_0.vout VSS VSS sg13_lv_nmos ad=0.19p pd=1.38u as=0.19p ps=1.38u w=1u l=1u
X194 voutp iqmod_mfb_lpf_ota_core_inv_NF6_0.vout VSS VSS sg13_lv_nmos ad=0.19p pd=1.38u as=0.19p ps=1.38u w=1u l=1u
X195 voutp iqmod_mfb_lpf_ota_core_inv_NF6_0.vout VDD VDD sg13_lv_pmos ad=1.14p pd=6.38u as=1.14p ps=6.38u w=6u l=1u
X196 VSS iqmod_mfb_lpf_ota_core_inv_NF10_0.vout iqmod_mfb_lpf_ota_core_inv_NF6_0.vout VSS sg13_lv_nmos ad=0.19p pd=1.38u as=0.19p ps=1.38u w=1u l=1u
X197 VDD iqmod_mfb_lpf_ota_core_inv_NF6_0.vout voutp VDD sg13_lv_pmos ad=1.14p pd=6.38u as=1.14p ps=6.38u w=6u l=1u
X198 VSS iqmod_mfb_lpf_ota_core_tg_1.v_a iqmod_mfb_lpf_ota_core_inv_NF6_2.vin VSS sg13_lv_nmos ad=0.19p pd=1.38u as=0.19p ps=1.38u w=1u l=1u
X199 VSS VSS VSS VSS sg13_lv_nmos ad=0.34p pd=2.68u as=0 ps=0 w=1u l=0.13u
X200 iqmod_mfb_lpf_ota_core_tg_1.v_a voutp VSS VSS sg13_lv_nmos ad=0.19p pd=1.38u as=0.19p ps=1.38u w=1u l=1u
X201 iqmod_mfb_lpf_ota_core_inv_NF6_2.vin di_ota_en iqmod_mfb_lpf_ota_core_tg_1.v_a VSS sg13_lv_nmos ad=0.19p pd=1.38u as=0.19p ps=1.38u w=1u l=0.13u
X202 VSS VSS VSS VSS sg13_lv_nmos ad=0.34p pd=2.68u as=0 ps=0 w=1u l=1u
X203 voutp iqmod_mfb_lpf_ota_core_inv_NF10_0.vin VDD VDD sg13_lv_pmos ad=1.14p pd=6.38u as=1.14p ps=6.38u w=6u l=1u
X204 iqmod_mfb_lpf_ota_core_inv_NF10_0.vout iqmod_mfb_lpf_ota_core_inv_NF10_0.vin VDD VDD sg13_lv_pmos ad=1.14p pd=6.38u as=1.14p ps=6.38u w=6u l=1u
X205 VDD iqmod_mfb_lpf_ota_core_inv_NF10_0.vin voutp VDD sg13_lv_pmos ad=1.14p pd=6.38u as=1.14p ps=6.38u w=6u l=1u
X206 VDD VDD VDD VDD sg13_lv_pmos ad=1.14p pd=6.38u as=0 ps=0 w=6u l=1u
X207 VDD iqmod_mfb_lpf_ota_core_spdt_switch_0.do_spdt_ctrl_n iqmod_mfb_lpf_ota_core_inv_NF10_0.vin VSS sg13_lv_nmos ad=0.19p pd=1.38u as=0.19p ps=1.38u w=1u l=0.13u
X208 VSS iqmod_mfb_lpf_ota_core_inv_NF6_0.vout voutp VSS sg13_lv_nmos ad=0.19p pd=1.38u as=0.19p ps=1.38u w=1u l=1u
X209 iqmod_mfb_lpf_ota_core_spdt_switch_0.iqmod_mfb_lpf_ota_core_spdt_switch_inv_0.vout iqmod_mfb_lpf_ota_core_spdt_switch_0.do_spdt_ctrl_n VDD VDD sg13_lv_pmos ad=1.14p pd=6.38u as=1.14p ps=6.38u w=6u l=0.13u
X210 iqmod_mfb_lpf_ota_core_inv_NF10_0.vin iqmod_mfb_lpf_ota_core_spdt_switch_0.do_spdt_ctrl_n vinp VDD sg13_lv_pmos ad=1.14p pd=6.38u as=2.04p ps=12.68u w=6u l=0.13u
X211 iqmod_mfb_lpf_ota_core_spdt_switch_0.iqmod_mfb_lpf_ota_core_spdt_switch_inv_0.vout iqmod_mfb_lpf_ota_core_spdt_switch_0.do_spdt_ctrl_n VSS VSS sg13_lv_nmos ad=0.19p pd=1.38u as=0.19p ps=1.38u w=1u l=0.13u
X212 iqmod_mfb_lpf_ota_core_inv_NF6_0.vout iqmod_mfb_lpf_ota_core_inv_NF10_0.vout VDD VDD sg13_lv_pmos ad=1.14p pd=6.38u as=1.14p ps=6.38u w=6u l=1u
X213 VSS voutp iqmod_mfb_lpf_ota_core_tg_1.v_a VSS sg13_lv_nmos ad=0.19p pd=1.38u as=0.19p ps=1.38u w=1u l=1u
X214 iqmod_mfb_lpf_ota_core_tg_1.v_a di_ota_en iqmod_mfb_lpf_ota_core_inv_NF6_2.vin VSS sg13_lv_nmos ad=0.19p pd=1.38u as=0.19p ps=1.38u w=1u l=0.13u
X215 VSS VSS VSS VSS sg13_lv_nmos ad=0.19p pd=1.38u as=0 ps=0 w=1u l=1u
X216 VDD di_ota_en iqmod_mfb_lpf_ota_core_spdt_switch_0.do_spdt_ctrl_n VDD sg13_lv_pmos ad=1.14p pd=6.38u as=1.14p ps=6.38u w=6u l=0.13u
X217 VSS iqmod_mfb_lpf_ota_core_inv_NF6_0.vout voutp VSS sg13_lv_nmos ad=0.19p pd=1.38u as=0.19p ps=1.38u w=1u l=1u
X218 VDD VDD VDD VDD sg13_lv_pmos ad=2.04p pd=12.68u as=0 ps=0 w=6u l=1u
X219 VDD iqmod_mfb_lpf_ota_core_tg_1.v_a iqmod_mfb_lpf_ota_core_inv_NF6_2.vin VDD sg13_lv_pmos ad=1.14p pd=6.38u as=1.14p ps=6.38u w=6u l=1u
X220 iqmod_mfb_lpf_ota_core_inv_NF6_2.vin iqmod_mfb_lpf_ota_core_tg_1.v_a VSS VSS sg13_lv_nmos ad=0.19p pd=1.38u as=0.19p ps=1.38u w=1u l=1u
X221 iqmod_mfb_lpf_ota_core_inv_NF10_0.vin iqmod_mfb_lpf_ota_core_spdt_switch_0.do_spdt_ctrl_n VDD VSS sg13_lv_nmos ad=0.19p pd=1.38u as=0.19p ps=1.38u w=1u l=0.13u
X222 voutp iqmod_mfb_lpf_ota_core_inv_NF6_0.vout VDD VDD sg13_lv_pmos ad=1.14p pd=6.38u as=1.14p ps=6.38u w=6u l=1u
X223 VSS iqmod_mfb_lpf_ota_core_spdt_switch_0.do_spdt_ctrl_n iqmod_mfb_lpf_ota_core_spdt_switch_0.iqmod_mfb_lpf_ota_core_spdt_switch_inv_0.vout VSS sg13_lv_nmos ad=0.19p pd=1.38u as=0.19p ps=1.38u w=1u l=0.13u
X224 voutp iqmod_mfb_lpf_ota_core_inv_NF6_0.vout VSS VSS sg13_lv_nmos ad=0.19p pd=1.38u as=0.19p ps=1.38u w=1u l=1u
X225 VSS iqmod_mfb_lpf_ota_core_inv_NF10_0.vin voutp VSS sg13_lv_nmos ad=0.19p pd=1.38u as=0.19p ps=1.38u w=1u l=1u
X226 iqmod_mfb_lpf_ota_core_inv_NF6_2.vin di_ota_en iqmod_mfb_lpf_ota_core_tg_1.v_a VSS sg13_lv_nmos ad=0.19p pd=1.38u as=0.19p ps=1.38u w=1u l=0.13u
X227 VDD iqmod_mfb_lpf_ota_core_inv_NF10_0.vin voutp VDD sg13_lv_pmos ad=1.14p pd=6.38u as=1.14p ps=6.38u w=6u l=1u
X228 voutp iqmod_mfb_lpf_ota_core_inv_NF10_0.vin VSS VSS sg13_lv_nmos ad=0.19p pd=1.38u as=0.19p ps=1.38u w=1u l=1u
X229 VDD iqmod_mfb_lpf_ota_core_inv_NF10_0.vin iqmod_mfb_lpf_ota_core_inv_NF10_0.vout VDD sg13_lv_pmos ad=1.14p pd=6.38u as=1.14p ps=6.38u w=6u l=1u
X230 iqmod_mfb_lpf_ota_core_inv_NF6_0.vout iqmod_mfb_lpf_ota_core_spdt_switch_0.do_spdt_ctrl_n iqmod_mfb_lpf_ota_core_inv_NF10_0.vout VDD sg13_lv_pmos ad=1.14p pd=6.38u as=1.14p ps=6.38u w=6u l=0.13u