* PEX produced on Sat Mar 28 01:57:35 AM CET 2026 using /foss/tools/sak/sak-pex.sh with m=2 and s=1
* NGSPICE file created from iqmod_mixer_half_pex.ext - technology: ihp-sg13g2

.subckt iqmod_mixer_half_pex VDD VSS vinp_IF vinp_LO voutp_RF
X0 voutp_RF iqmod_mixer_tg_0.di_tg_ctrl_n voutp_RF VSS sg13_lv_nmos ad=0.57p pd=3.38u as=93.24p ps=0.91908m w=3u l=0.13u
X1 VSS iqmod_mixer_se2diff_0.iqmod_mixer_se2diff_half_tg_0.iqmod_mixer_se2diff_inv_NF18$1_0.vout iqmod_mixer_tg_0.di_tg_ctrl_n VSS sg13_lv_nmos ad=0.19p pd=1.38u as=0.19p ps=1.38u w=1u l=0.13u
X2 iqmod_mixer_tg_0.di_tg_ctrl iqmod_mixer_se2diff_0.iqmod_mixer_se2diff_half_inv_0.iqmod_mixer_se2diff_inv_NF18_0.vout VDD VDD sg13_lv_pmos ad=0.57p pd=3.38u as=0.57p ps=3.38u w=3u l=0.13u
X3 iqmod_mixer_tg_0.di_tg_ctrl_n iqmod_mixer_se2diff_0.iqmod_mixer_se2diff_half_tg_0.iqmod_mixer_se2diff_inv_NF18$1_0.vout VSS VSS sg13_lv_nmos ad=0.19p pd=1.38u as=0.19p ps=1.38u w=1u l=0.13u
X4 iqmod_mixer_tg_0.di_tg_ctrl_n iqmod_mixer_se2diff_0.iqmod_mixer_se2diff_half_tg_0.iqmod_mixer_se2diff_inv_NF18$1_0.vout VSS VSS sg13_lv_nmos ad=0.19p pd=1.38u as=0.19p ps=1.38u w=1u l=0.13u
X5 VDD iqmod_mixer_se2diff_0.iqmod_mixer_se2diff_half_tg_0.iqmod_mixer_se2diff_inv_NF6$1_0.vout iqmod_mixer_se2diff_0.iqmod_mixer_se2diff_half_tg_0.iqmod_mixer_se2diff_inv_NF18$1_0.vout VDD sg13_lv_pmos ad=0.57p pd=3.38u as=0.57p ps=3.38u w=3u l=0.13u
X6 VSS iqmod_mixer_se2diff_0.iqmod_mixer_se2diff_half_tg_0.iqmod_mixer_se2diff_inv_NF18$1_0.vout iqmod_mixer_tg_0.di_tg_ctrl_n VSS sg13_lv_nmos ad=0.19p pd=1.38u as=0.19p ps=1.38u w=1u l=0.13u
X7 iqmod_mixer_se2diff_0.iqmod_mixer_se2diff_half_inv_0.iqmod_mixer_se2diff_inv_NF2_0.vout vinp_IF VDD VDD sg13_lv_pmos ad=0.57p pd=3.38u as=0.57p ps=3.38u w=3u l=0.13u
X8 iqmod_mixer_se2diff_0.iqmod_mixer_se2diff_half_tg_0.iqmod_mixer_se2diff_inv_NF18$1_0.vout iqmod_mixer_se2diff_0.iqmod_mixer_se2diff_half_tg_0.iqmod_mixer_se2diff_inv_NF6$1_0.vout VDD VDD sg13_lv_pmos ad=0.57p pd=3.38u as=0.57p ps=3.38u w=3u l=0.13u
X9 iqmod_mixer_tg_0.di_tg_ctrl_n iqmod_mixer_se2diff_0.iqmod_mixer_se2diff_half_tg_0.iqmod_mixer_se2diff_inv_NF18$1_0.vout VDD VDD sg13_lv_pmos ad=0.57p pd=3.38u as=0.57p ps=3.38u w=3u l=0.13u
X10 VDD iqmod_mixer_se2diff_0.iqmod_mixer_se2diff_half_tg_0.iqmod_mixer_se2diff_inv_NF18$1_0.vout iqmod_mixer_tg_0.di_tg_ctrl_n VDD sg13_lv_pmos ad=0.57p pd=3.38u as=0.57p ps=3.38u w=3u l=0.13u
X11 voutp_RF iqmod_mixer_tg_0.di_tg_ctrl_n voutp_RF VSS sg13_lv_nmos ad=0.57p pd=3.38u as=0 ps=0 w=3u l=0.13u
X12 voutp_RF iqmod_mixer_tg_0.di_tg_ctrl vinp_LO VSS sg13_lv_nmos ad=0.57p pd=3.38u as=0.57p ps=3.38u w=3u l=0.13u
X13 VSS iqmod_mixer_se2diff_0.iqmod_mixer_se2diff_half_inv_0.iqmod_mixer_se2diff_inv_NF18_0.vout iqmod_mixer_tg_0.di_tg_ctrl VSS sg13_lv_nmos ad=0.19p pd=1.38u as=0.19p ps=1.38u w=1u l=0.13u
X14 iqmod_mixer_se2diff_0.iqmod_mixer_se2diff_half_inv_0.iqmod_mixer_se2diff_inv_NF18_0.vout iqmod_mixer_se2diff_0.iqmod_mixer_se2diff_half_inv_0.iqmod_mixer_se2diff_inv_NF6_1.vout VSS VSS sg13_lv_nmos ad=0.19p pd=1.38u as=0.19p ps=1.38u w=1u l=0.13u
X15 iqmod_mixer_tg_0.di_tg_ctrl_n iqmod_mixer_se2diff_0.iqmod_mixer_se2diff_half_tg_0.iqmod_mixer_se2diff_inv_NF18$1_0.vout VSS VSS sg13_lv_nmos ad=0.19p pd=1.38u as=0.19p ps=1.38u w=1u l=0.13u
X16 iqmod_mixer_tg_0.di_tg_ctrl iqmod_mixer_se2diff_0.iqmod_mixer_se2diff_half_inv_0.iqmod_mixer_se2diff_inv_NF18_0.vout VSS VSS sg13_lv_nmos ad=0.19p pd=1.38u as=0.19p ps=1.38u w=1u l=0.13u
X17 iqmod_mixer_tg_0.di_tg_ctrl_n iqmod_mixer_se2diff_0.iqmod_mixer_se2diff_half_tg_0.iqmod_mixer_se2diff_inv_NF18$1_0.vout VDD VDD sg13_lv_pmos ad=0.57p pd=3.38u as=0.57p ps=3.38u w=3u l=0.13u
X18 VDD iqmod_mixer_se2diff_0.iqmod_mixer_se2diff_half_inv_0.iqmod_mixer_se2diff_inv_NF6_2.vout iqmod_mixer_se2diff_0.iqmod_mixer_se2diff_half_inv_0.iqmod_mixer_se2diff_inv_NF6_1.vout VDD sg13_lv_pmos ad=0.57p pd=3.38u as=0.57p ps=3.38u w=3u l=0.13u
X19 iqmod_mixer_se2diff_0.iqmod_mixer_se2diff_half_inv_0.iqmod_mixer_se2diff_inv_NF18_0.vout iqmod_mixer_se2diff_0.iqmod_mixer_se2diff_half_inv_0.iqmod_mixer_se2diff_inv_NF6_1.vout VDD VDD sg13_lv_pmos ad=0.57p pd=3.38u as=0.57p ps=3.38u w=3u l=0.13u
X20 VDD iqmod_mixer_se2diff_0.iqmod_mixer_se2diff_half_tg_0.iqmod_mixer_se2diff_inv_NF18$1_0.vout iqmod_mixer_tg_0.di_tg_ctrl_n VDD sg13_lv_pmos ad=0.57p pd=3.38u as=0.57p ps=3.38u w=3u l=0.13u
X21 VDD iqmod_mixer_se2diff_0.iqmod_mixer_se2diff_half_inv_0.iqmod_mixer_se2diff_inv_NF18_0.vout iqmod_mixer_tg_0.di_tg_ctrl VDD sg13_lv_pmos ad=0.57p pd=3.38u as=0.57p ps=3.38u w=3u l=0.13u
X22 iqmod_mixer_se2diff_0.iqmod_mixer_se2diff_half_inv_0.iqmod_mixer_se2diff_inv_NF2_1.vout iqmod_mixer_se2diff_0.iqmod_mixer_se2diff_half_tg_0.iqmod_mixer_se2diff_tg_NF6_0.v_b VDD VDD sg13_lv_pmos ad=0.57p pd=3.38u as=0.57p ps=3.38u w=3u l=0.13u
X23 iqmod_mixer_tg_0.di_tg_ctrl iqmod_mixer_se2diff_0.iqmod_mixer_se2diff_half_inv_0.iqmod_mixer_se2diff_inv_NF18_0.vout VDD VDD sg13_lv_pmos ad=0.57p pd=3.38u as=0.57p ps=3.38u w=3u l=0.13u
X24 VSS iqmod_mixer_se2diff_0.iqmod_mixer_se2diff_half_tg_0.iqmod_mixer_se2diff_inv_NF6$1_0.vout iqmod_mixer_se2diff_0.iqmod_mixer_se2diff_half_tg_0.iqmod_mixer_se2diff_inv_NF18$1_0.vout VSS sg13_lv_nmos ad=0.19p pd=1.38u as=0.19p ps=1.38u w=1u l=0.13u
X25 iqmod_mixer_tg_0.di_tg_ctrl iqmod_mixer_se2diff_0.iqmod_mixer_se2diff_half_inv_0.iqmod_mixer_se2diff_inv_NF18_0.vout VSS VSS sg13_lv_nmos ad=0.19p pd=1.38u as=0.19p ps=1.38u w=1u l=0.13u
X26 voutp_RF iqmod_mixer_tg_0.di_tg_ctrl_n vinp_LO VDD sg13_lv_pmos ad=1.71p pd=9.38u as=1.71p ps=9.38u w=9u l=0.13u
X27 VDD iqmod_mixer_se2diff_0.iqmod_mixer_se2diff_half_inv_0.iqmod_mixer_se2diff_inv_NF6_2.vin iqmod_mixer_se2diff_0.iqmod_mixer_se2diff_half_inv_0.iqmod_mixer_se2diff_inv_NF6_2.vout VDD sg13_lv_pmos ad=0.57p pd=3.38u as=0.57p ps=3.38u w=3u l=0.13u
X28 vinp_LO iqmod_mixer_tg_0.di_tg_ctrl_n voutp_RF VDD sg13_lv_pmos ad=1.71p pd=9.38u as=1.71p ps=9.38u w=9u l=0.13u
X29 iqmod_mixer_tg_0.di_tg_ctrl iqmod_mixer_se2diff_0.iqmod_mixer_se2diff_half_inv_0.iqmod_mixer_se2diff_inv_NF18_0.vout VDD VDD sg13_lv_pmos ad=0.57p pd=3.38u as=0.57p ps=3.38u w=3u l=0.13u
X30 iqmod_mixer_se2diff_0.iqmod_mixer_se2diff_half_inv_0.iqmod_mixer_se2diff_inv_NF6_2.vout iqmod_mixer_se2diff_0.iqmod_mixer_se2diff_half_inv_0.iqmod_mixer_se2diff_inv_NF6_2.vin VDD VDD sg13_lv_pmos ad=0.57p pd=3.38u as=0.57p ps=3.38u w=3u l=0.13u
X31 iqmod_mixer_se2diff_0.iqmod_mixer_se2diff_half_inv_0.iqmod_mixer_se2diff_inv_NF6_1.vout iqmod_mixer_se2diff_0.iqmod_mixer_se2diff_half_inv_0.iqmod_mixer_se2diff_inv_NF6_2.vout VSS VSS sg13_lv_nmos ad=0.19p pd=1.38u as=0.19p ps=1.38u w=1u l=0.13u
X32 voutp_RF iqmod_mixer_tg_0.di_tg_ctrl_n vinp_LO VDD sg13_lv_pmos ad=1.71p pd=9.38u as=1.71p ps=9.38u w=9u l=0.13u
X33 VDD iqmod_mixer_se2diff_0.iqmod_mixer_se2diff_half_tg_0.iqmod_mixer_se2diff_tg_NF6_0.v_b iqmod_mixer_se2diff_0.iqmod_mixer_se2diff_half_inv_0.iqmod_mixer_se2diff_inv_NF2_1.vout VDD sg13_lv_pmos ad=0.57p pd=3.38u as=0.57p ps=3.38u w=3u l=0.13u
X34 VSS iqmod_mixer_se2diff_0.iqmod_mixer_se2diff_half_inv_0.iqmod_mixer_se2diff_inv_NF6_2.vout iqmod_mixer_se2diff_0.iqmod_mixer_se2diff_half_inv_0.iqmod_mixer_se2diff_inv_NF6_1.vout VSS sg13_lv_nmos ad=0.19p pd=1.38u as=0.19p ps=1.38u w=1u l=0.13u
X35 iqmod_mixer_tg_0.di_tg_ctrl iqmod_mixer_se2diff_0.iqmod_mixer_se2diff_half_inv_0.iqmod_mixer_se2diff_inv_NF18_0.vout VDD VDD sg13_lv_pmos ad=0.57p pd=3.38u as=0.57p ps=3.38u w=3u l=0.13u
X36 VDD iqmod_mixer_se2diff_0.iqmod_mixer_se2diff_half_tg_0.iqmod_mixer_se2diff_inv_NF6$1_0.vout iqmod_mixer_se2diff_0.iqmod_mixer_se2diff_half_tg_0.iqmod_mixer_se2diff_inv_NF18$1_0.vout VDD sg13_lv_pmos ad=0.57p pd=3.38u as=0.57p ps=3.38u w=3u l=0.13u
X37 VSS iqmod_mixer_se2diff_0.iqmod_mixer_se2diff_half_tg_0.iqmod_mixer_se2diff_inv_NF6$1_0.vout iqmod_mixer_se2diff_0.iqmod_mixer_se2diff_half_tg_0.iqmod_mixer_se2diff_inv_NF18$1_0.vout VSS sg13_lv_nmos ad=0.19p pd=1.38u as=0.19p ps=1.38u w=1u l=0.13u
X38 iqmod_mixer_tg_0.di_tg_ctrl iqmod_mixer_se2diff_0.iqmod_mixer_se2diff_half_inv_0.iqmod_mixer_se2diff_inv_NF18_0.vout VDD VDD sg13_lv_pmos ad=0.57p pd=3.38u as=0.57p ps=3.38u w=3u l=0.13u
X39 voutp_RF iqmod_mixer_tg_0.di_tg_ctrl vinp_LO VSS sg13_lv_nmos ad=0.57p pd=3.38u as=0.57p ps=3.38u w=3u l=0.13u
X40 VDD iqmod_mixer_se2diff_0.iqmod_mixer_se2diff_half_inv_0.iqmod_mixer_se2diff_inv_NF18_0.vout iqmod_mixer_tg_0.di_tg_ctrl VDD sg13_lv_pmos ad=0.57p pd=3.38u as=0.57p ps=3.38u w=3u l=0.13u
X41 iqmod_mixer_se2diff_0.iqmod_mixer_se2diff_half_tg_0.iqmod_mixer_se2diff_inv_NF18$1_0.vout iqmod_mixer_se2diff_0.iqmod_mixer_se2diff_half_tg_0.iqmod_mixer_se2diff_inv_NF6$1_0.vout VDD VDD sg13_lv_pmos ad=0.57p pd=3.38u as=0.57p ps=3.38u w=3u l=0.13u
X42 vinp_LO iqmod_mixer_tg_0.di_tg_ctrl voutp_RF VSS sg13_lv_nmos ad=0.57p pd=3.38u as=0.57p ps=3.38u w=3u l=0.13u
X43 iqmod_mixer_se2diff_0.iqmod_mixer_se2diff_half_tg_0.iqmod_mixer_se2diff_inv_NF18$1_0.vout iqmod_mixer_se2diff_0.iqmod_mixer_se2diff_half_tg_0.iqmod_mixer_se2diff_inv_NF6$1_0.vout VSS VSS sg13_lv_nmos ad=0.19p pd=1.38u as=0.19p ps=1.38u w=1u l=0.13u
X44 VDD iqmod_mixer_se2diff_0.iqmod_mixer_se2diff_half_tg_0.iqmod_mixer_se2diff_inv_NF18$1_0.vout iqmod_mixer_tg_0.di_tg_ctrl_n VDD sg13_lv_pmos ad=0.57p pd=3.38u as=0.57p ps=3.38u w=3u l=0.13u
X45 VSS iqmod_mixer_se2diff_0.iqmod_mixer_se2diff_half_tg_0.iqmod_mixer_se2diff_inv_NF18$1_0.vout iqmod_mixer_tg_0.di_tg_ctrl_n VSS sg13_lv_nmos ad=0.19p pd=1.38u as=0.19p ps=1.38u w=1u l=0.13u
X46 iqmod_mixer_se2diff_0.iqmod_mixer_se2diff_half_inv_0.iqmod_mixer_se2diff_inv_NF6_2.vin iqmod_mixer_se2diff_0.iqmod_mixer_se2diff_half_inv_0.iqmod_mixer_se2diff_inv_NF2_0.vout VSS VSS sg13_lv_nmos ad=0.19p pd=1.38u as=0.19p ps=1.38u w=1u l=0.13u
X47 iqmod_mixer_tg_0.di_tg_ctrl_n iqmod_mixer_se2diff_0.iqmod_mixer_se2diff_half_tg_0.iqmod_mixer_se2diff_inv_NF18$1_0.vout VDD VDD sg13_lv_pmos ad=0.57p pd=3.38u as=0.57p ps=3.38u w=3u l=0.13u
X48 iqmod_mixer_tg_0.di_tg_ctrl_n iqmod_mixer_se2diff_0.iqmod_mixer_se2diff_half_tg_0.iqmod_mixer_se2diff_inv_NF18$1_0.vout VSS VSS sg13_lv_nmos ad=0.19p pd=1.38u as=0.19p ps=1.38u w=1u l=0.13u
X49 VSS iqmod_mixer_se2diff_0.iqmod_mixer_se2diff_half_inv_0.iqmod_mixer_se2diff_inv_NF2_0.vout iqmod_mixer_se2diff_0.iqmod_mixer_se2diff_half_inv_0.iqmod_mixer_se2diff_inv_NF6_2.vin VSS sg13_lv_nmos ad=0.19p pd=1.38u as=0.19p ps=1.38u w=1u l=0.13u
X50 VSS VSS VSS VSS sg13_lv_nmos ad=0.34p pd=2.68u as=0.49326n ps=0.94542m w=1u l=0.13u
X51 iqmod_mixer_tg_0.di_tg_ctrl iqmod_mixer_se2diff_0.iqmod_mixer_se2diff_half_inv_0.iqmod_mixer_se2diff_inv_NF18_0.vout VSS VSS sg13_lv_nmos ad=0.19p pd=1.38u as=0.19p ps=1.38u w=1u l=0.13u
X52 vinp_LO iqmod_mixer_tg_0.di_tg_ctrl voutp_RF VSS sg13_lv_nmos ad=0.57p pd=3.38u as=0.57p ps=3.38u w=3u l=0.13u
X53 iqmod_mixer_tg_0.di_tg_ctrl iqmod_mixer_se2diff_0.iqmod_mixer_se2diff_half_inv_0.iqmod_mixer_se2diff_inv_NF18_0.vout VSS VSS sg13_lv_nmos ad=0.19p pd=1.38u as=0.19p ps=1.38u w=1u l=0.13u
X54 VSS iqmod_mixer_se2diff_0.iqmod_mixer_se2diff_half_inv_0.iqmod_mixer_se2diff_inv_NF18_0.vout iqmod_mixer_tg_0.di_tg_ctrl VSS sg13_lv_nmos ad=0.19p pd=1.38u as=0.19p ps=1.38u w=1u l=0.13u
X55 VDD iqmod_mixer_se2diff_0.iqmod_mixer_se2diff_half_tg_0.iqmod_mixer_se2diff_inv_NF18$1_0.vout iqmod_mixer_tg_0.di_tg_ctrl_n VDD sg13_lv_pmos ad=0.57p pd=3.38u as=0.57p ps=3.38u w=3u l=0.13u
X56 iqmod_mixer_tg_0.di_tg_ctrl_n iqmod_mixer_se2diff_0.iqmod_mixer_se2diff_half_tg_0.iqmod_mixer_se2diff_inv_NF18$1_0.vout VDD VDD sg13_lv_pmos ad=0.57p pd=3.38u as=0.57p ps=3.38u w=3u l=0.13u
X57 iqmod_mixer_se2diff_0.iqmod_mixer_se2diff_half_inv_0.iqmod_mixer_se2diff_inv_NF18_0.vout iqmod_mixer_se2diff_0.iqmod_mixer_se2diff_half_inv_0.iqmod_mixer_se2diff_inv_NF6_1.vout VDD VDD sg13_lv_pmos ad=0.57p pd=3.38u as=0.57p ps=3.38u w=3u l=0.13u
X58 VDD iqmod_mixer_se2diff_0.iqmod_mixer_se2diff_half_inv_0.iqmod_mixer_se2diff_inv_NF6_1.vout iqmod_mixer_se2diff_0.iqmod_mixer_se2diff_half_inv_0.iqmod_mixer_se2diff_inv_NF18_0.vout VDD sg13_lv_pmos ad=0.57p pd=3.38u as=0.57p ps=3.38u w=3u l=0.13u
X59 vinp_LO iqmod_mixer_tg_0.di_tg_ctrl_n voutp_RF VDD sg13_lv_pmos ad=1.71p pd=9.38u as=1.71p ps=9.38u w=9u l=0.13u
X60 VSS VSS VSS VSS sg13_lv_nmos ad=0.19p pd=1.38u as=0 ps=0 w=1u l=0.13u
X61 iqmod_mixer_se2diff_0.iqmod_mixer_se2diff_half_inv_0.iqmod_mixer_se2diff_inv_NF18_0.vout iqmod_mixer_se2diff_0.iqmod_mixer_se2diff_half_inv_0.iqmod_mixer_se2diff_inv_NF6_1.vout VDD VDD sg13_lv_pmos ad=0.57p pd=3.38u as=0.57p ps=3.38u w=3u l=0.13u
X62 VSS iqmod_mixer_se2diff_0.iqmod_mixer_se2diff_half_inv_0.iqmod_mixer_se2diff_inv_NF18_0.vout iqmod_mixer_tg_0.di_tg_ctrl VSS sg13_lv_nmos ad=0.19p pd=1.38u as=0.19p ps=1.38u w=1u l=0.13u
X63 VDD iqmod_mixer_se2diff_0.iqmod_mixer_se2diff_half_inv_0.iqmod_mixer_se2diff_inv_NF18_0.vout iqmod_mixer_tg_0.di_tg_ctrl VDD sg13_lv_pmos ad=0.57p pd=3.38u as=0.57p ps=3.38u w=3u l=0.13u
X64 iqmod_mixer_tg_0.di_tg_ctrl_n iqmod_mixer_se2diff_0.iqmod_mixer_se2diff_half_tg_0.iqmod_mixer_se2diff_inv_NF18$1_0.vout VDD VDD sg13_lv_pmos ad=0.57p pd=3.38u as=0.57p ps=3.38u w=3u l=0.13u
X65 VDD iqmod_mixer_se2diff_0.iqmod_mixer_se2diff_half_tg_0.iqmod_mixer_se2diff_inv_NF18$1_0.vout iqmod_mixer_tg_0.di_tg_ctrl_n VDD sg13_lv_pmos ad=0.57p pd=3.38u as=0.57p ps=3.38u w=3u l=0.13u
X66 iqmod_mixer_se2diff_0.iqmod_mixer_se2diff_half_inv_0.iqmod_mixer_se2diff_inv_NF2_1.vout iqmod_mixer_se2diff_0.iqmod_mixer_se2diff_half_tg_0.iqmod_mixer_se2diff_tg_NF6_0.v_b VDD VDD sg13_lv_pmos ad=0.57p pd=3.38u as=0.57p ps=3.38u w=3u l=0.13u
X67 voutp_RF iqmod_mixer_tg_0.di_tg_ctrl voutp_RF VDD sg13_lv_pmos ad=1.71p pd=9.38u as=0 ps=0 w=9u l=0.13u
X68 iqmod_mixer_se2diff_0.iqmod_mixer_se2diff_half_tg_0.iqmod_mixer_se2diff_inv_NF18$1_0.vout iqmod_mixer_se2diff_0.iqmod_mixer_se2diff_half_tg_0.iqmod_mixer_se2diff_inv_NF6$1_0.vout VDD VDD sg13_lv_pmos ad=0.57p pd=3.38u as=0.57p ps=3.38u w=3u l=0.13u
X69 voutp_RF iqmod_mixer_tg_0.di_tg_ctrl voutp_RF VDD sg13_lv_pmos ad=1.71p pd=9.38u as=0 ps=0 w=9u l=0.13u
X70 VDD iqmod_mixer_se2diff_0.iqmod_mixer_se2diff_half_tg_0.iqmod_mixer_se2diff_inv_NF6$1_0.vout iqmod_mixer_se2diff_0.iqmod_mixer_se2diff_half_tg_0.iqmod_mixer_se2diff_inv_NF18$1_0.vout VDD sg13_lv_pmos ad=0.57p pd=3.38u as=0.57p ps=3.38u w=3u l=0.13u
X71 VDD VDD VDD VDD sg13_lv_pmos ad=0.57p pd=3.38u as=0.51014n ps=1.43034m w=3u l=0.13u
X72 VDD iqmod_mixer_se2diff_0.iqmod_mixer_se2diff_half_inv_0.iqmod_mixer_se2diff_inv_NF6_2.vout iqmod_mixer_se2diff_0.iqmod_mixer_se2diff_half_inv_0.iqmod_mixer_se2diff_inv_NF2_1.vout VDD sg13_lv_pmos ad=0.57p pd=3.38u as=0.57p ps=3.38u w=3u l=0.13u
X73 iqmod_mixer_tg_0.di_tg_ctrl_n iqmod_mixer_se2diff_0.iqmod_mixer_se2diff_half_tg_0.iqmod_mixer_se2diff_inv_NF18$1_0.vout VDD VDD sg13_lv_pmos ad=0.57p pd=3.38u as=0.57p ps=3.38u w=3u l=0.13u
X74 vinp_LO iqmod_mixer_tg_0.di_tg_ctrl voutp_RF VSS sg13_lv_nmos ad=0.57p pd=3.38u as=0.57p ps=3.38u w=3u l=0.13u
X75 VSS iqmod_mixer_se2diff_0.iqmod_mixer_se2diff_half_tg_0.iqmod_mixer_se2diff_inv_NF6$1_0.vout iqmod_mixer_se2diff_0.iqmod_mixer_se2diff_half_tg_0.iqmod_mixer_se2diff_inv_NF18$1_0.vout VSS sg13_lv_nmos ad=0.19p pd=1.38u as=0.19p ps=1.38u w=1u l=0.13u
X76 voutp_RF iqmod_mixer_tg_0.di_tg_ctrl vinp_LO VSS sg13_lv_nmos ad=0.57p pd=3.38u as=0.57p ps=3.38u w=3u l=0.13u
X77 VSS iqmod_mixer_se2diff_0.iqmod_mixer_se2diff_half_tg_0.iqmod_mixer_se2diff_inv_NF18$1_0.vout iqmod_mixer_tg_0.di_tg_ctrl_n VSS sg13_lv_nmos ad=0.19p pd=1.38u as=0.19p ps=1.38u w=1u l=0.13u
X78 VSS iqmod_mixer_se2diff_0.iqmod_mixer_se2diff_half_inv_0.iqmod_mixer_se2diff_inv_NF6_2.vin iqmod_mixer_se2diff_0.iqmod_mixer_se2diff_half_inv_0.iqmod_mixer_se2diff_inv_NF6_2.vout VSS sg13_lv_nmos ad=0.19p pd=1.38u as=0.19p ps=1.38u w=1u l=0.13u
X79 iqmod_mixer_tg_0.di_tg_ctrl_n iqmod_mixer_se2diff_0.iqmod_mixer_se2diff_half_tg_0.iqmod_mixer_se2diff_inv_NF18$1_0.vout VSS VSS sg13_lv_nmos ad=0.19p pd=1.38u as=0.19p ps=1.38u w=1u l=0.13u
X80 iqmod_mixer_se2diff_0.iqmod_mixer_se2diff_half_inv_0.iqmod_mixer_se2diff_inv_NF6_2.vout iqmod_mixer_se2diff_0.iqmod_mixer_se2diff_half_inv_0.iqmod_mixer_se2diff_inv_NF6_2.vin VSS VSS sg13_lv_nmos ad=0.19p pd=1.38u as=0.19p ps=1.38u w=1u l=0.13u
X81 VSS iqmod_mixer_se2diff_0.iqmod_mixer_se2diff_half_inv_0.iqmod_mixer_se2diff_inv_NF18_0.vout iqmod_mixer_tg_0.di_tg_ctrl VSS sg13_lv_nmos ad=0.19p pd=1.38u as=0.19p ps=1.38u w=1u l=0.13u
X82 iqmod_mixer_tg_0.di_tg_ctrl iqmod_mixer_se2diff_0.iqmod_mixer_se2diff_half_inv_0.iqmod_mixer_se2diff_inv_NF18_0.vout VSS VSS sg13_lv_nmos ad=0.19p pd=1.38u as=0.19p ps=1.38u w=1u l=0.13u
X83 iqmod_mixer_tg_0.di_tg_ctrl iqmod_mixer_se2diff_0.iqmod_mixer_se2diff_half_inv_0.iqmod_mixer_se2diff_inv_NF18_0.vout VSS VSS sg13_lv_nmos ad=0.19p pd=1.38u as=0.19p ps=1.38u w=1u l=0.13u
X84 VSS iqmod_mixer_se2diff_0.iqmod_mixer_se2diff_half_inv_0.iqmod_mixer_se2diff_inv_NF18_0.vout iqmod_mixer_tg_0.di_tg_ctrl VSS sg13_lv_nmos ad=0.19p pd=1.38u as=0.19p ps=1.38u w=1u l=0.13u
X85 voutp_RF iqmod_mixer_tg_0.di_tg_ctrl voutp_RF VDD sg13_lv_pmos ad=1.71p pd=9.38u as=0 ps=0 w=9u l=0.13u
X86 VDD VDD VDD VDD sg13_lv_pmos ad=0.57p pd=3.38u as=0 ps=0 w=3u l=0.13u
X87 VDD iqmod_mixer_se2diff_0.iqmod_mixer_se2diff_half_tg_0.iqmod_mixer_se2diff_inv_NF18$1_0.vout iqmod_mixer_tg_0.di_tg_ctrl_n VDD sg13_lv_pmos ad=0.57p pd=3.38u as=0.57p ps=3.38u w=3u l=0.13u
X88 iqmod_mixer_se2diff_0.iqmod_mixer_se2diff_half_inv_0.iqmod_mixer_se2diff_inv_NF2_0.vout VDD iqmod_mixer_se2diff_0.iqmod_mixer_se2diff_half_tg_0.iqmod_mixer_se2diff_tg_NF6_0.v_b VSS sg13_lv_nmos ad=0.34p pd=2.68u as=0.19p ps=1.38u w=1u l=0.13u
X89 VDD iqmod_mixer_se2diff_0.iqmod_mixer_se2diff_half_inv_0.iqmod_mixer_se2diff_inv_NF6_1.vout iqmod_mixer_se2diff_0.iqmod_mixer_se2diff_half_inv_0.iqmod_mixer_se2diff_inv_NF18_0.vout VDD sg13_lv_pmos ad=0.57p pd=3.38u as=0.57p ps=3.38u w=3u l=0.13u
X90 iqmod_mixer_tg_0.di_tg_ctrl_n iqmod_mixer_se2diff_0.iqmod_mixer_se2diff_half_tg_0.iqmod_mixer_se2diff_inv_NF18$1_0.vout VDD VDD sg13_lv_pmos ad=0.57p pd=3.38u as=0.57p ps=3.38u w=3u l=0.13u
X91 iqmod_mixer_se2diff_0.iqmod_mixer_se2diff_half_tg_0.iqmod_mixer_se2diff_tg_NF6_0.v_b VDD iqmod_mixer_se2diff_0.iqmod_mixer_se2diff_half_inv_0.iqmod_mixer_se2diff_inv_NF2_0.vout VSS sg13_lv_nmos ad=0.19p pd=1.38u as=0.19p ps=1.38u w=1u l=0.13u
X92 iqmod_mixer_tg_0.di_tg_ctrl iqmod_mixer_se2diff_0.iqmod_mixer_se2diff_half_inv_0.iqmod_mixer_se2diff_inv_NF18_0.vout VDD VDD sg13_lv_pmos ad=0.57p pd=3.38u as=0.57p ps=3.38u w=3u l=0.13u
X93 VDD iqmod_mixer_se2diff_0.iqmod_mixer_se2diff_half_tg_0.iqmod_mixer_se2diff_tg_NF6_0.v_b iqmod_mixer_se2diff_0.iqmod_mixer_se2diff_half_inv_0.iqmod_mixer_se2diff_inv_NF2_1.vout VDD sg13_lv_pmos ad=0.57p pd=3.38u as=0.57p ps=3.38u w=3u l=0.13u
X94 iqmod_mixer_tg_0.di_tg_ctrl iqmod_mixer_se2diff_0.iqmod_mixer_se2diff_half_inv_0.iqmod_mixer_se2diff_inv_NF18_0.vout VSS VSS sg13_lv_nmos ad=0.19p pd=1.38u as=0.19p ps=1.38u w=1u l=0.13u
X95 VDD iqmod_mixer_se2diff_0.iqmod_mixer_se2diff_half_inv_0.iqmod_mixer_se2diff_inv_NF18_0.vout iqmod_mixer_tg_0.di_tg_ctrl VDD sg13_lv_pmos ad=0.57p pd=3.38u as=0.57p ps=3.38u w=3u l=0.13u
X96 VDD iqmod_mixer_se2diff_0.iqmod_mixer_se2diff_half_tg_0.iqmod_mixer_se2diff_inv_NF6$1_0.vout iqmod_mixer_se2diff_0.iqmod_mixer_se2diff_half_tg_0.iqmod_mixer_se2diff_inv_NF18$1_0.vout VDD sg13_lv_pmos ad=0.57p pd=3.38u as=0.57p ps=3.38u w=3u l=0.13u
X97 iqmod_mixer_se2diff_0.iqmod_mixer_se2diff_half_tg_0.iqmod_mixer_se2diff_inv_NF18$1_0.vout iqmod_mixer_se2diff_0.iqmod_mixer_se2diff_half_tg_0.iqmod_mixer_se2diff_inv_NF6$1_0.vout VDD VDD sg13_lv_pmos ad=0.57p pd=3.38u as=0.57p ps=3.38u w=3u l=0.13u
X98 VSS iqmod_mixer_se2diff_0.iqmod_mixer_se2diff_half_tg_0.iqmod_mixer_se2diff_inv_NF18$1_0.vout iqmod_mixer_tg_0.di_tg_ctrl_n VSS sg13_lv_nmos ad=0.19p pd=1.38u as=0.19p ps=1.38u w=1u l=0.13u
X99 voutp_RF iqmod_mixer_tg_0.di_tg_ctrl voutp_RF VDD sg13_lv_pmos ad=1.71p pd=9.38u as=0 ps=0 w=9u l=0.13u
X100 iqmod_mixer_tg_0.di_tg_ctrl_n iqmod_mixer_se2diff_0.iqmod_mixer_se2diff_half_tg_0.iqmod_mixer_se2diff_inv_NF18$1_0.vout VSS VSS sg13_lv_nmos ad=0.19p pd=1.38u as=0.19p ps=1.38u w=1u l=0.13u
X101 voutp_RF iqmod_mixer_tg_0.di_tg_ctrl_n vinp_LO VDD sg13_lv_pmos ad=1.71p pd=9.38u as=1.71p ps=9.38u w=9u l=0.13u
X102 voutp_RF iqmod_mixer_tg_0.di_tg_ctrl_n voutp_RF VSS sg13_lv_nmos ad=0.57p pd=3.38u as=0 ps=0 w=3u l=0.13u
X103 VSS iqmod_mixer_se2diff_0.iqmod_mixer_se2diff_half_inv_0.iqmod_mixer_se2diff_inv_NF6_1.vout iqmod_mixer_se2diff_0.iqmod_mixer_se2diff_half_inv_0.iqmod_mixer_se2diff_inv_NF18_0.vout VSS sg13_lv_nmos ad=0.19p pd=1.38u as=0.19p ps=1.38u w=1u l=0.13u
X104 voutp_RF iqmod_mixer_tg_0.di_tg_ctrl_n voutp_RF VSS sg13_lv_nmos ad=0.57p pd=3.38u as=0 ps=0 w=3u l=0.13u
X105 VSS iqmod_mixer_se2diff_0.iqmod_mixer_se2diff_half_tg_0.iqmod_mixer_se2diff_inv_NF18$1_0.vout iqmod_mixer_tg_0.di_tg_ctrl_n VSS sg13_lv_nmos ad=0.19p pd=1.38u as=0.19p ps=1.38u w=1u l=0.13u
X106 voutp_RF iqmod_mixer_tg_0.di_tg_ctrl vinp_LO VSS sg13_lv_nmos ad=0.57p pd=3.38u as=0.57p ps=3.38u w=3u l=0.13u
X107 voutp_RF iqmod_mixer_tg_0.di_tg_ctrl_n voutp_RF VSS sg13_lv_nmos ad=0.57p pd=3.38u as=0 ps=0 w=3u l=0.13u
X108 iqmod_mixer_tg_0.di_tg_ctrl_n iqmod_mixer_se2diff_0.iqmod_mixer_se2diff_half_tg_0.iqmod_mixer_se2diff_inv_NF18$1_0.vout VSS VSS sg13_lv_nmos ad=0.19p pd=1.38u as=0.19p ps=1.38u w=1u l=0.13u
X109 iqmod_mixer_tg_0.di_tg_ctrl_n iqmod_mixer_se2diff_0.iqmod_mixer_se2diff_half_tg_0.iqmod_mixer_se2diff_inv_NF18$1_0.vout VSS VSS sg13_lv_nmos ad=0.19p pd=1.38u as=0.19p ps=1.38u w=1u l=0.13u
X110 VDD iqmod_mixer_se2diff_0.iqmod_mixer_se2diff_half_inv_0.iqmod_mixer_se2diff_inv_NF6_2.vout iqmod_mixer_se2diff_0.iqmod_mixer_se2diff_half_inv_0.iqmod_mixer_se2diff_inv_NF6_1.vout VDD sg13_lv_pmos ad=0.57p pd=3.38u as=0.57p ps=3.38u w=3u l=0.13u
X111 vinp_LO iqmod_mixer_tg_0.di_tg_ctrl voutp_RF VSS sg13_lv_nmos ad=0.57p pd=3.38u as=1.02p ps=6.68u w=3u l=0.13u
X112 VSS VSS VSS VSS sg13_lv_nmos ad=0.34p pd=2.68u as=0 ps=0 w=1u l=0.13u
X113 iqmod_mixer_se2diff_0.iqmod_mixer_se2diff_half_inv_0.iqmod_mixer_se2diff_inv_NF6_1.vout iqmod_mixer_se2diff_0.iqmod_mixer_se2diff_half_inv_0.iqmod_mixer_se2diff_inv_NF6_2.vout VDD VDD sg13_lv_pmos ad=0.57p pd=3.38u as=0.57p ps=3.38u w=3u l=0.13u
X114 VSS iqmod_mixer_se2diff_0.iqmod_mixer_se2diff_half_inv_0.iqmod_mixer_se2diff_inv_NF6_1.vout iqmod_mixer_se2diff_0.iqmod_mixer_se2diff_half_inv_0.iqmod_mixer_se2diff_inv_NF18_0.vout VSS sg13_lv_nmos ad=0.19p pd=1.38u as=0.19p ps=1.38u w=1u l=0.13u
X115 iqmod_mixer_se2diff_0.iqmod_mixer_se2diff_half_inv_0.iqmod_mixer_se2diff_inv_NF18_0.vout iqmod_mixer_se2diff_0.iqmod_mixer_se2diff_half_inv_0.iqmod_mixer_se2diff_inv_NF6_1.vout VSS VSS sg13_lv_nmos ad=0.19p pd=1.38u as=0.19p ps=1.38u w=1u l=0.13u
X116 VSS VSS VSS VSS sg13_lv_nmos ad=0.34p pd=2.68u as=0 ps=0 w=1u l=0.13u
X117 VSS iqmod_mixer_se2diff_0.iqmod_mixer_se2diff_half_inv_0.iqmod_mixer_se2diff_inv_NF18_0.vout iqmod_mixer_tg_0.di_tg_ctrl VSS sg13_lv_nmos ad=0.19p pd=1.38u as=0.19p ps=1.38u w=1u l=0.13u
X118 VDD iqmod_mixer_se2diff_0.iqmod_mixer_se2diff_half_inv_0.iqmod_mixer_se2diff_inv_NF2_0.vout iqmod_mixer_se2diff_0.iqmod_mixer_se2diff_half_inv_0.iqmod_mixer_se2diff_inv_NF6_2.vin VDD sg13_lv_pmos ad=0.57p pd=3.38u as=0.57p ps=3.38u w=3u l=0.13u
X119 iqmod_mixer_tg_0.di_tg_ctrl_n iqmod_mixer_se2diff_0.iqmod_mixer_se2diff_half_tg_0.iqmod_mixer_se2diff_inv_NF18$1_0.vout VDD VDD sg13_lv_pmos ad=0.57p pd=3.38u as=0.57p ps=3.38u w=3u l=0.13u
X120 voutp_RF iqmod_mixer_tg_0.di_tg_ctrl_n vinp_LO VDD sg13_lv_pmos ad=1.71p pd=9.38u as=1.71p ps=9.38u w=9u l=0.13u
X121 iqmod_mixer_tg_0.di_tg_ctrl iqmod_mixer_se2diff_0.iqmod_mixer_se2diff_half_inv_0.iqmod_mixer_se2diff_inv_NF18_0.vout VSS VSS sg13_lv_nmos ad=0.19p pd=1.38u as=0.19p ps=1.38u w=1u l=0.13u
X122 VDD iqmod_mixer_se2diff_0.iqmod_mixer_se2diff_half_tg_0.iqmod_mixer_se2diff_inv_NF18$1_0.vout iqmod_mixer_tg_0.di_tg_ctrl_n VDD sg13_lv_pmos ad=0.57p pd=3.38u as=0.57p ps=3.38u w=3u l=0.13u
X123 iqmod_mixer_se2diff_0.iqmod_mixer_se2diff_half_inv_0.iqmod_mixer_se2diff_inv_NF6_2.vin iqmod_mixer_se2diff_0.iqmod_mixer_se2diff_half_inv_0.iqmod_mixer_se2diff_inv_NF2_0.vout VDD VDD sg13_lv_pmos ad=0.57p pd=3.38u as=0.57p ps=3.38u w=3u l=0.13u
X124 VDD VDD VDD VDD sg13_lv_pmos ad=1.02p pd=6.68u as=0 ps=0 w=3u l=0.13u
X125 vinp_LO iqmod_mixer_tg_0.di_tg_ctrl_n voutp_RF VDD sg13_lv_pmos ad=1.71p pd=9.38u as=1.71p ps=9.38u w=9u l=0.13u
X126 VSS VSS VSS VSS sg13_lv_nmos ad=0.34p pd=2.68u as=0 ps=0 w=1u l=0.13u
X127 iqmod_mixer_se2diff_0.iqmod_mixer_se2diff_half_tg_0.iqmod_mixer_se2diff_inv_NF18$1_0.vout iqmod_mixer_se2diff_0.iqmod_mixer_se2diff_half_tg_0.iqmod_mixer_se2diff_inv_NF6$1_0.vout VDD VDD sg13_lv_pmos ad=0.57p pd=3.38u as=0.57p ps=3.38u w=3u l=0.13u
X128 VDD iqmod_mixer_se2diff_0.iqmod_mixer_se2diff_half_inv_0.iqmod_mixer_se2diff_inv_NF18_0.vout iqmod_mixer_tg_0.di_tg_ctrl VDD sg13_lv_pmos ad=0.57p pd=3.38u as=0.57p ps=3.38u w=3u l=0.13u
X129 VDD iqmod_mixer_se2diff_0.iqmod_mixer_se2diff_half_inv_0.iqmod_mixer_se2diff_inv_NF18_0.vout iqmod_mixer_tg_0.di_tg_ctrl VDD sg13_lv_pmos ad=0.57p pd=3.38u as=0.57p ps=3.38u w=3u l=0.13u
X130 VDD iqmod_mixer_se2diff_0.iqmod_mixer_se2diff_half_tg_0.iqmod_mixer_se2diff_inv_NF6$1_0.vout iqmod_mixer_se2diff_0.iqmod_mixer_se2diff_half_tg_0.iqmod_mixer_se2diff_inv_NF18$1_0.vout VDD sg13_lv_pmos ad=0.57p pd=3.38u as=0.57p ps=3.38u w=3u l=0.13u
X131 iqmod_mixer_se2diff_0.iqmod_mixer_se2diff_half_tg_0.iqmod_mixer_se2diff_inv_NF18$1_0.vout iqmod_mixer_se2diff_0.iqmod_mixer_se2diff_half_tg_0.iqmod_mixer_se2diff_inv_NF6$1_0.vout VSS VSS sg13_lv_nmos ad=0.19p pd=1.38u as=0.19p ps=1.38u w=1u l=0.13u
X132 iqmod_mixer_tg_0.di_tg_ctrl iqmod_mixer_se2diff_0.iqmod_mixer_se2diff_half_inv_0.iqmod_mixer_se2diff_inv_NF18_0.vout VDD VDD sg13_lv_pmos ad=0.57p pd=3.38u as=0.57p ps=3.38u w=3u l=0.13u
X133 VSS VSS VSS VSS sg13_lv_nmos ad=0.34p pd=2.68u as=0 ps=0 w=1u l=0.13u
X134 iqmod_mixer_tg_0.di_tg_ctrl iqmod_mixer_se2diff_0.iqmod_mixer_se2diff_half_inv_0.iqmod_mixer_se2diff_inv_NF18_0.vout VDD VDD sg13_lv_pmos ad=0.57p pd=3.38u as=0.57p ps=3.38u w=3u l=0.13u
X135 iqmod_mixer_tg_0.di_tg_ctrl_n iqmod_mixer_se2diff_0.iqmod_mixer_se2diff_half_tg_0.iqmod_mixer_se2diff_inv_NF18$1_0.vout VSS VSS sg13_lv_nmos ad=0.19p pd=1.38u as=0.19p ps=1.38u w=1u l=0.13u
X136 VDD iqmod_mixer_se2diff_0.iqmod_mixer_se2diff_half_inv_0.iqmod_mixer_se2diff_inv_NF18_0.vout iqmod_mixer_tg_0.di_tg_ctrl VDD sg13_lv_pmos ad=0.57p pd=3.38u as=0.57p ps=3.38u w=3u l=0.13u
X137 VSS iqmod_mixer_se2diff_0.iqmod_mixer_se2diff_half_tg_0.iqmod_mixer_se2diff_inv_NF18$1_0.vout iqmod_mixer_tg_0.di_tg_ctrl_n VSS sg13_lv_nmos ad=0.19p pd=1.38u as=0.19p ps=1.38u w=1u l=0.13u
X138 vinp_LO iqmod_mixer_tg_0.di_tg_ctrl_n voutp_RF VDD sg13_lv_pmos ad=1.71p pd=9.38u as=1.71p ps=9.38u w=9u l=0.13u
X139 VDD iqmod_mixer_se2diff_0.iqmod_mixer_se2diff_half_tg_0.iqmod_mixer_se2diff_inv_NF6$1_0.vout iqmod_mixer_se2diff_0.iqmod_mixer_se2diff_half_tg_0.iqmod_mixer_se2diff_inv_NF18$1_0.vout VDD sg13_lv_pmos ad=0.57p pd=3.38u as=0.57p ps=3.38u w=3u l=0.13u
X140 iqmod_mixer_se2diff_0.iqmod_mixer_se2diff_half_tg_0.iqmod_mixer_se2diff_inv_NF18$1_0.vout iqmod_mixer_se2diff_0.iqmod_mixer_se2diff_half_tg_0.iqmod_mixer_se2diff_inv_NF6$1_0.vout VDD VDD sg13_lv_pmos ad=0.57p pd=3.38u as=0.57p ps=3.38u w=3u l=0.13u
X141 VDD vinp_IF iqmod_mixer_se2diff_0.iqmod_mixer_se2diff_half_inv_0.iqmod_mixer_se2diff_inv_NF2_0.vout VDD sg13_lv_pmos ad=0.57p pd=3.38u as=0.57p ps=3.38u w=3u l=0.13u
X142 VSS iqmod_mixer_se2diff_0.iqmod_mixer_se2diff_half_tg_0.iqmod_mixer_se2diff_inv_NF18$1_0.vout iqmod_mixer_tg_0.di_tg_ctrl_n VSS sg13_lv_nmos ad=0.19p pd=1.38u as=0.19p ps=1.38u w=1u l=0.13u
X143 VSS VSS VSS VSS sg13_lv_nmos ad=0.34p pd=2.68u as=0 ps=0 w=1u l=0.13u
X144 iqmod_mixer_tg_0.di_tg_ctrl iqmod_mixer_se2diff_0.iqmod_mixer_se2diff_half_inv_0.iqmod_mixer_se2diff_inv_NF18_0.vout VDD VDD sg13_lv_pmos ad=0.57p pd=3.38u as=0.57p ps=3.38u w=3u l=0.13u
X145 voutp_RF iqmod_mixer_tg_0.di_tg_ctrl vinp_LO VSS sg13_lv_nmos ad=0.57p pd=3.38u as=0.57p ps=3.38u w=3u l=0.13u
X146 voutp_RF iqmod_mixer_tg_0.di_tg_ctrl_n voutp_RF VSS sg13_lv_nmos ad=0.57p pd=3.38u as=0 ps=0 w=3u l=0.13u
X147 vinp_LO iqmod_mixer_tg_0.di_tg_ctrl voutp_RF VSS sg13_lv_nmos ad=0.57p pd=3.38u as=0.57p ps=3.38u w=3u l=0.13u
X148 VSS iqmod_mixer_se2diff_0.iqmod_mixer_se2diff_half_tg_0.iqmod_mixer_se2diff_inv_NF18$1_0.vout iqmod_mixer_tg_0.di_tg_ctrl_n VSS sg13_lv_nmos ad=0.19p pd=1.38u as=0.19p ps=1.38u w=1u l=0.13u
X149 voutp_RF iqmod_mixer_tg_0.di_tg_ctrl_n voutp_RF VSS sg13_lv_nmos ad=0.57p pd=3.38u as=0 ps=0 w=3u l=0.13u
X150 iqmod_mixer_se2diff_0.iqmod_mixer_se2diff_half_tg_0.iqmod_mixer_se2diff_tg_NF6_0.v_b VSS iqmod_mixer_se2diff_0.iqmod_mixer_se2diff_half_inv_0.iqmod_mixer_se2diff_inv_NF2_0.vout VDD sg13_lv_pmos ad=0.57p pd=3.38u as=1.02p ps=6.68u w=3u l=0.13u
X151 VDD VDD VDD VDD sg13_lv_pmos ad=0.57p pd=3.38u as=0 ps=0 w=3u l=0.13u
X152 VDD iqmod_mixer_se2diff_0.iqmod_mixer_se2diff_half_inv_0.iqmod_mixer_se2diff_inv_NF6_1.vout iqmod_mixer_se2diff_0.iqmod_mixer_se2diff_half_inv_0.iqmod_mixer_se2diff_inv_NF18_0.vout VDD sg13_lv_pmos ad=0.57p pd=3.38u as=0.57p ps=3.38u w=3u l=0.13u
X153 VDD iqmod_mixer_se2diff_0.iqmod_mixer_se2diff_half_tg_0.iqmod_mixer_se2diff_inv_NF18$1_0.vout iqmod_mixer_tg_0.di_tg_ctrl_n VDD sg13_lv_pmos ad=0.57p pd=3.38u as=0.57p ps=3.38u w=3u l=0.13u
X154 VDD iqmod_mixer_se2diff_0.iqmod_mixer_se2diff_half_inv_0.iqmod_mixer_se2diff_inv_NF2_1.vout iqmod_mixer_se2diff_0.iqmod_mixer_se2diff_half_tg_0.iqmod_mixer_se2diff_inv_NF6$1_0.vout VDD sg13_lv_pmos ad=0.57p pd=3.38u as=0.57p ps=3.38u w=3u l=0.13u
X155 VSS iqmod_mixer_se2diff_0.iqmod_mixer_se2diff_half_inv_0.iqmod_mixer_se2diff_inv_NF6_1.vout iqmod_mixer_se2diff_0.iqmod_mixer_se2diff_half_inv_0.iqmod_mixer_se2diff_inv_NF18_0.vout VSS sg13_lv_nmos ad=0.19p pd=1.38u as=0.19p ps=1.38u w=1u l=0.13u
X156 iqmod_mixer_se2diff_0.iqmod_mixer_se2diff_half_tg_0.iqmod_mixer_se2diff_inv_NF6$1_0.vout iqmod_mixer_se2diff_0.iqmod_mixer_se2diff_half_inv_0.iqmod_mixer_se2diff_inv_NF2_1.vout VDD VDD sg13_lv_pmos ad=0.57p pd=3.38u as=0.57p ps=3.38u w=3u l=0.13u