* PEX produced on Sun Mar 29 05:08:21 PM CEST 2026 using /foss/tools/sak/sak-pex.sh with m=2 and s=1
* NGSPICE file created from iqmod_top_half_pex.ext - technology: ihp-sg13g2

.subckt iqmod_top_half_pex di_spdt_ctrl_I voutn_I_RF voutp_I_RF VSS VDD di_lo_I di_lo_Ix
+ di_ds_I_n vinn_I vinp_I di_ds_I_p di_analog_en
X0 iqmod_mixer_0.iqmod_mixer_half_0.iqmod_mixer_se2diff$1_0.iqmod_mixer_se2diff_half_inv$2_0.iqmod_mixer_se2diff_inv_NF2$7_1.vout iqmod_mixer_0.iqmod_mixer_half_0.iqmod_mixer_se2diff$1_0.iqmod_mixer_se2diff_half_tg$2_0.iqmod_mixer_se2diff_tg_NF6$3_0.v_b VSS VSS sg13_lv_nmos ad=0.19p pd=1.38u as=0.19p ps=1.38u w=1u l=0.13u
X1 iqmod_mixer_0.iqmod_mixer_half_1.iqmod_mixer_se2diff$1_0.iqmod_mixer_se2diff_half_tg$2_0.iqmod_mixer_se2diff_tg_NF6$3_0.v_b VDD iqmod_mixer_0.iqmod_mixer_half_1.iqmod_mixer_se2diff$1_0.iqmod_mixer_se2diff_half_inv$2_0.iqmod_mixer_se2diff_inv_NF6$7_0.vin VSS sg13_lv_nmos ad=0.19p pd=1.38u as=0.19p ps=1.38u w=1u l=0.13u
X2 VSS iqmod_mixer_0.iqmod_mixer_half_0.iqmod_mixer_se2diff$1_0.iqmod_mixer_se2diff_half_inv$2_0.iqmod_mixer_se2diff_inv_NF6$7_1.vin iqmod_mixer_0.iqmod_mixer_half_0.iqmod_mixer_se2diff$1_0.iqmod_mixer_se2diff_half_inv$2_0.iqmod_mixer_se2diff_inv_NF18$7_0.vin VSS sg13_lv_nmos ad=0.19p pd=1.38u as=0.19p ps=1.38u w=1u l=0.13u
X3 VDD iqmod_mixer_0.iqmod_mixer_half_0.iqmod_mixer_se2diff$1_0.iqmod_mixer_se2diff_half_inv$2_0.iqmod_mixer_se2diff_inv_NF54$7_0.vin iqmod_mixer_0.iqmod_mixer_half_0.iqmod_mixer_tg$1_0.di_tg_ctrl VDD sg13_lv_pmos ad=0.57p pd=3.38u as=0.57p ps=3.38u w=3u l=0.13u
X4 iqmod_mixer_0.vinn_IF iqmod_mfb_lpf_0.iqmod_mfb_lpf_half_0.iqmod_mfb_lpf_ota_core_hybrid_bm_half$1_0.iqmod_mfb_lpf_ota_core_tg$2_0.v_b VSS VSS sg13_lv_nmos ad=0.19p pd=1.38u as=0.19p ps=1.38u w=1u l=1u
X5 VDD iqmod_mfb_lpf_0.iqmod_mfb_lpf_half_0.iqmod_mfb_lpf_ota_core_hybrid_bm_half$1_0.iqmod_mfb_lpf_ota_core_tg$2_0.di_tg_ctrl_n iqmod_mfb_lpf_0.iqmod_mfb_lpf_half_0.iqmod_mfb_lpf_ota_core_hybrid_bm_half$1_0.iqmod_mfb_lpf_ota_core_inv_NF20$2_1.vin VSS sg13_lv_nmos ad=0.19p pd=1.38u as=0.19p ps=1.38u w=1u l=0.13u
X6 VSS VSS VSS VSS sg13_lv_nmos ad=0.34p pd=2.68u as=3.5775n ps=5.32783m w=1u l=0.13u
X7 VSS VSS VSS rhigh l=59u w=0.5u
X8 VDD iqmod_mixer_0.iqmod_mixer_half_0.iqmod_mixer_se2diff$1_0.iqmod_mixer_se2diff_half_inv$2_0.iqmod_mixer_se2diff_inv_NF2$7_1.vout iqmod_mixer_0.iqmod_mixer_half_0.iqmod_mixer_se2diff$1_0.iqmod_mixer_se2diff_half_tg$2_0.iqmod_mixer_se2diff_inv_NF18$6_0.vin VDD sg13_lv_pmos ad=0.57p pd=3.38u as=0.57p ps=3.38u w=3u l=0.13u
X9 iqmod_mixer_0.iqmod_mixer_half_0.iqmod_mixer_tg$1_0.di_tg_ctrl_n iqmod_mixer_0.iqmod_mixer_half_0.iqmod_mixer_se2diff$1_0.iqmod_mixer_se2diff_half_tg$2_0.iqmod_mixer_se2diff_inv_NF54$6_0.vin VDD VDD sg13_lv_pmos ad=0.57p pd=3.38u as=0.57p ps=3.38u w=3u l=0.13u
X10 iqmod_mfb_lpf_0.iqmod_mfb_lpf_half_0.iqmod_mfb_lpf_ota_core_hybrid_bm_half$1_0.iqmod_mfb_lpf_ota_core_inv_NF20$2_0.vout di_analog_en iqmod_mfb_lpf_0.iqmod_mfb_lpf_half_0.iqmod_mfb_lpf_ota_core_hybrid_bm_half$1_0.iqmod_mfb_lpf_ota_core_inv_NF6$2_1.vout VSS sg13_lv_nmos ad=0.34p pd=2.68u as=0.19p ps=1.38u w=1u l=0.13u
X11 iqmod_mixer_0.iqmod_mixer_half_1.iqmod_mixer_tg$1_0.di_tg_ctrl iqmod_mixer_0.iqmod_mixer_half_1.iqmod_mixer_se2diff$1_0.iqmod_mixer_se2diff_half_inv$2_0.iqmod_mixer_se2diff_inv_NF54$7_0.vin VSS VSS sg13_lv_nmos ad=0.19p pd=1.38u as=0.19p ps=1.38u w=1u l=0.13u
X12 VDD VDD VDD VDD sg13_lv_pmos ad=1.02p pd=6.68u as=2.74865n ps=6.46494m w=3u l=0.13u
X13 iqmod_mixer_0.iqmod_mixer_half_0.iqmod_mixer_tg$1_0.di_tg_ctrl iqmod_mixer_0.iqmod_mixer_half_0.iqmod_mixer_se2diff$1_0.iqmod_mixer_se2diff_half_inv$2_0.iqmod_mixer_se2diff_inv_NF54$7_0.vin VDD VDD sg13_lv_pmos ad=0.57p pd=3.38u as=0.57p ps=3.38u w=3u l=0.13u
X14 iqmod_mixer_0.iqmod_mixer_half_0.iqmod_mixer_se2diff$1_0.iqmod_mixer_se2diff_half_tg$2_0.iqmod_mixer_se2diff_inv_NF18$6_0.vin iqmod_mixer_0.iqmod_mixer_half_0.iqmod_mixer_se2diff$1_0.iqmod_mixer_se2diff_half_inv$2_0.iqmod_mixer_se2diff_inv_NF2$7_1.vout VDD VDD sg13_lv_pmos ad=0.57p pd=3.38u as=0.57p ps=3.38u w=3u l=0.13u
X15 iqmod_mfb_lpf_0.iqmod_mfb_lpf_half_0.iqmod_mfb_lpf_ota_core_hybrid_bm_half$1_0.iqmod_mfb_lpf_ota_core_inv_NF6$2_1.vout di_analog_en iqmod_mfb_lpf_0.iqmod_mfb_lpf_half_0.iqmod_mfb_lpf_ota_core_hybrid_bm_half$1_0.iqmod_mfb_lpf_ota_core_inv_NF20$2_0.vout VSS sg13_lv_nmos ad=0.19p pd=1.38u as=0.19p ps=1.38u w=1u l=0.13u
X16 VDD iqmod_mfb_lpf_0.iqmod_mfb_lpf_half_1.iqmod_mfb_lpf_ota_core_hybrid_bm_half$1_0.iqmod_mfb_lpf_ota_core_inv_NF20$2_1.vin iqmod_mixer_0.vinp_IF VDD sg13_lv_pmos ad=1.14p pd=6.38u as=1.14p ps=6.38u w=6u l=1u
X17 VSS VSS VSS rhigh l=27u w=0.5u
X18 VSS iqmod_mixer_0.iqmod_mixer_half_1.iqmod_mixer_se2diff$1_0.iqmod_mixer_se2diff_half_tg$2_0.iqmod_mixer_se2diff_inv_NF54$6_0.vin iqmod_mixer_0.iqmod_mixer_half_1.iqmod_mixer_tg$1_0.di_tg_ctrl_n VSS sg13_lv_nmos ad=0.19p pd=1.38u as=0.19p ps=1.38u w=1u l=0.13u
X19 iqmod_mfb_lpf_0.iqmod_mfb_lpf_half_0.iqmod_mfb_lpf_ota_core_hybrid_bm_half$1_0.iqmod_mfb_lpf_ota_core_inv_NF6$2_1.vout iqmod_mfb_lpf_0.iqmod_mfb_lpf_half_0.iqmod_mfb_lpf_ota_core_hybrid_bm_half$1_0.iqmod_mfb_lpf_ota_core_inv_NF20$2_0.vout VDD VDD sg13_lv_pmos ad=1.14p pd=6.38u as=1.14p ps=6.38u w=6u l=1u
X20 iqmod_mixer_0.iqmod_mixer_half_1.iqmod_mixer_tg$1_0.di_tg_ctrl_n iqmod_mixer_0.iqmod_mixer_half_1.iqmod_mixer_se2diff$1_0.iqmod_mixer_se2diff_half_tg$2_0.iqmod_mixer_se2diff_inv_NF54$6_0.vin VDD VDD sg13_lv_pmos ad=0.57p pd=3.38u as=0.57p ps=3.38u w=3u l=0.13u
X21 iqmod_mfb_lpf_0.iqmod_mfb_lpf_half_0.iqmod_mfb_lpf_ota_core_hybrid_bm_half$1_0.iqmod_mfb_lpf_ota_core_inv_NF20$2_1.vin iqmod_mfb_lpf_0.iqmod_mfb_lpf_half_0.iqmod_mfb_lpf_ota_core_hybrid_bm_half$1_0.iqmod_mfb_lpf_ota_core_tg$2_0.di_tg_ctrl_n iqmod_spdt_switch_1.v_c VDD sg13_lv_pmos ad=1.14p pd=6.38u as=1.14p ps=6.38u w=6u l=0.13u
X22 VSS iqmod_mfb_lpf_0.iqmod_mfb_lpf_half_0.iqmod_mfb_lpf_ota_core_hybrid_bm_half$1_0.iqmod_mfb_lpf_ota_core_tg$2_0.v_b iqmod_mixer_0.vinn_IF VSS sg13_lv_nmos ad=0.19p pd=1.38u as=0.19p ps=1.38u w=1u l=1u
X23 VDD iqmod_mixer_0.vinn_IF iqmod_mfb_lpf_0.iqmod_mfb_lpf_half_0.iqmod_mfb_lpf_ota_core_hybrid_bm_half$1_0.iqmod_mfb_lpf_ota_core_inv_NF20$2_0.vout VDD sg13_lv_pmos ad=1.14p pd=6.38u as=1.14p ps=6.38u w=6u l=1u
X24 a_36853_10752# iqmod_mixer_0.vinn_IF VSS rhigh l=60u w=0.5u
X25 iqmod_spdt_switch_0.v_c iqmod_spdt_switch_0.spdt_switch_inv_0.vin vinn_I VDD sg13_lv_pmos ad=1.14p pd=6.38u as=2.04p ps=12.68u w=6u l=0.13u
X26 iqmod_spdt_switch_0.spdt_switch_inv_0.vout iqmod_spdt_switch_0.spdt_switch_inv_0.vin VDD VDD sg13_lv_pmos ad=1.14p pd=6.38u as=1.14p ps=6.38u w=6u l=0.13u
X27 voutp_I_RF iqmod_mixer_0.iqmod_mixer_half_1.iqmod_mixer_tg$1_0.di_tg_ctrl_n voutp_I_RF VSS sg13_lv_nmos ad=0.57p pd=3.38u as=93.24p ps=0.91908m w=3u l=0.13u
X28 iqmod_mfb_lpf_0.iqmod_mfb_lpf_half_0.iqmod_mfb_lpf_ota_core_hybrid_bm_half$1_0.iqmod_mfb_lpf_ota_core_inv_NF6$2_1.vout iqmod_mfb_lpf_0.iqmod_mfb_lpf_half_0.iqmod_mfb_lpf_ota_core_hybrid_bm_half$1_0.iqmod_mfb_lpf_ota_core_inv_NF20$2_0.vout VDD VDD sg13_lv_pmos ad=1.14p pd=6.38u as=1.14p ps=6.38u w=6u l=1u
X29 iqmod_mixer_0.vinp_IF iqmod_mixer_0.iqmod_mixer_half_1.iqmod_mixer_tg$1_0.di_tg_ctrl voutp_I_RF VSS sg13_lv_nmos ad=0.57p pd=3.38u as=0.57p ps=3.38u w=3u l=0.13u
X30 iqmod_mfb_lpf_0.iqmod_mfb_lpf_half_0.C2_half iqmod_mfb_lpf_0.iqmod_mfb_lpf_half_0.iqmod_mfb_lpf_R3$1_0.v_a cap_cmim l=8u w=8u
X31 iqmod_mixer_0.iqmod_mixer_half_0.iqmod_mixer_se2diff$1_0.iqmod_mixer_se2diff_half_inv$2_0.iqmod_mixer_se2diff_inv_NF6$7_0.vout iqmod_mixer_0.iqmod_mixer_half_0.iqmod_mixer_se2diff$1_0.iqmod_mixer_se2diff_half_inv$2_0.iqmod_mixer_se2diff_inv_NF6$7_0.vin VSS VSS sg13_lv_nmos ad=0.19p pd=1.38u as=0.19p ps=1.38u w=1u l=0.13u
X32 iqmod_spdt_switch_1.v_c iqmod_mfb_lpf_0.iqmod_mfb_lpf_half_0.iqmod_mfb_lpf_ota_core_hybrid_bm_half$1_0.iqmod_mfb_lpf_ota_core_tg$2_0.di_tg_ctrl_n iqmod_mfb_lpf_0.iqmod_mfb_lpf_half_0.iqmod_mfb_lpf_ota_core_hybrid_bm_half$1_0.iqmod_mfb_lpf_ota_core_inv_NF20$2_1.vin VDD sg13_lv_pmos ad=1.14p pd=6.38u as=1.14p ps=6.38u w=6u l=0.13u
X33 VDD iqmod_mfb_lpf_0.iqmod_mfb_lpf_half_0.iqmod_mfb_lpf_ota_core_hybrid_bm_half$1_0.iqmod_mfb_lpf_ota_core_inv_NF20$2_1.vin iqmod_mfb_lpf_0.iqmod_mfb_lpf_half_0.iqmod_mfb_lpf_ota_core_hybrid_bm_half$1_0.iqmod_mfb_lpf_ota_core_tg$2_0.v_a VDD sg13_lv_pmos ad=1.14p pd=6.38u as=1.14p ps=6.38u w=6u l=1u
X34 iqmod_mixer_0.iqmod_mixer_half_0.iqmod_mixer_tg$1_0.di_tg_ctrl_n iqmod_mixer_0.iqmod_mixer_half_0.iqmod_mixer_se2diff$1_0.iqmod_mixer_se2diff_half_tg$2_0.iqmod_mixer_se2diff_inv_NF54$6_0.vin VSS VSS sg13_lv_nmos ad=0.19p pd=1.38u as=0.19p ps=1.38u w=1u l=0.13u
X35 iqmod_mfb_lpf_0.iqmod_mfb_lpf_half_0.iqmod_mfb_lpf_ota_core_hybrid_bm_half$1_0.iqmod_mfb_lpf_ota_core_tg$2_0.v_a di_analog_en iqmod_mfb_lpf_0.iqmod_mfb_lpf_half_0.iqmod_mfb_lpf_ota_core_hybrid_bm_half$1_0.iqmod_mfb_lpf_ota_core_tg$2_0.v_b VSS sg13_lv_nmos ad=0.19p pd=1.38u as=0.19p ps=1.38u w=1u l=0.13u
X36 VDD iqmod_mixer_0.vinp_IF iqmod_mfb_lpf_0.iqmod_mfb_lpf_half_0.iqmod_mfb_lpf_ota_core_hybrid_bm_half$1_0.iqmod_mfb_lpf_ota_core_inv_NF20$2_0.vout VDD sg13_lv_pmos ad=1.14p pd=6.38u as=1.14p ps=6.38u w=6u l=1u
X37 voutp_I_RF iqmod_mixer_0.iqmod_mixer_half_1.iqmod_mixer_tg$1_0.di_tg_ctrl_n voutp_I_RF VSS sg13_lv_nmos ad=0.57p pd=3.38u as=0 ps=0 w=3u l=0.13u
X38 VDD iqmod_mixer_0.iqmod_mixer_half_1.iqmod_mixer_se2diff$1_0.iqmod_mixer_se2diff_half_inv$2_0.iqmod_mixer_se2diff_inv_NF54$7_0.vin iqmod_mixer_0.iqmod_mixer_half_1.iqmod_mixer_tg$1_0.di_tg_ctrl VDD sg13_lv_pmos ad=0.57p pd=3.38u as=0.57p ps=3.38u w=3u l=0.13u
X39 iqmod_mixer_0.vinp_IF iqmod_mfb_lpf_0.iqmod_mfb_lpf_half_1.iqmod_mfb_lpf_ota_core_hybrid_bm_half$1_0.iqmod_mfb_lpf_ota_core_inv_NF20$2_1.vin VDD VDD sg13_lv_pmos ad=1.14p pd=6.38u as=1.14p ps=6.38u w=6u l=1u
X40 VDD iqmod_mixer_0.iqmod_mixer_half_1.iqmod_mixer_se2diff$1_0.iqmod_mixer_se2diff_half_inv$2_0.iqmod_mixer_se2diff_inv_NF6$7_0.vin iqmod_mixer_0.iqmod_mixer_half_1.iqmod_mixer_se2diff$1_0.iqmod_mixer_se2diff_half_inv$2_0.iqmod_mixer_se2diff_inv_NF6$7_0.vout VDD sg13_lv_pmos ad=0.57p pd=3.38u as=0.57p ps=3.38u w=3u l=0.13u
X41 VSS iqmod_mixer_0.iqmod_mixer_half_0.iqmod_mixer_se2diff$1_0.iqmod_mixer_se2diff_half_inv$2_0.iqmod_mixer_se2diff_inv_NF6$7_0.vin iqmod_mixer_0.iqmod_mixer_half_0.iqmod_mixer_se2diff$1_0.iqmod_mixer_se2diff_half_inv$2_0.iqmod_mixer_se2diff_inv_NF6$7_0.vout VSS sg13_lv_nmos ad=0.19p pd=1.38u as=0.19p ps=1.38u w=1u l=0.13u
X42 iqmod_mixer_0.iqmod_mixer_half_1.iqmod_mixer_se2diff$1_0.iqmod_mixer_se2diff_half_inv$2_0.iqmod_mixer_se2diff_inv_NF6$7_0.vin di_lo_I VDD VDD sg13_lv_pmos ad=0.57p pd=3.38u as=0.57p ps=3.38u w=3u l=0.13u
X43 iqmod_mixer_0.iqmod_mixer_half_0.iqmod_mixer_se2diff$1_0.iqmod_mixer_se2diff_half_inv$2_0.iqmod_mixer_se2diff_inv_NF6$7_0.vin VSS iqmod_mixer_0.iqmod_mixer_half_0.iqmod_mixer_se2diff$1_0.iqmod_mixer_se2diff_half_tg$2_0.iqmod_mixer_se2diff_tg_NF6$3_0.v_b VDD sg13_lv_pmos ad=0.57p pd=3.38u as=0.57p ps=3.38u w=3u l=0.13u
X44 VSS iqmod_mixer_0.vinp_IF iqmod_mfb_lpf_0.iqmod_mfb_lpf_half_0.iqmod_mfb_lpf_ota_core_hybrid_bm_half$1_0.iqmod_mfb_lpf_ota_core_inv_NF20$2_0.vout VSS sg13_lv_nmos ad=0.19p pd=1.38u as=0.19p ps=1.38u w=1u l=1u
X45 VSS iqmod_mixer_0.iqmod_mixer_half_0.iqmod_mixer_se2diff$1_0.iqmod_mixer_se2diff_half_tg$2_0.iqmod_mixer_se2diff_inv_NF54$6_0.vin iqmod_mixer_0.iqmod_mixer_half_0.iqmod_mixer_tg$1_0.di_tg_ctrl_n VSS sg13_lv_nmos ad=0.19p pd=1.38u as=0.19p ps=1.38u w=1u l=0.13u
X46 iqmod_spdt_switch_1.spdt_switch_inv_0.vin di_spdt_ctrl_I VSS VSS sg13_lv_nmos ad=0.19p pd=1.38u as=0.19p ps=1.38u w=1u l=0.13u
X47 iqmod_mixer_0.iqmod_mixer_half_1.iqmod_mixer_tg$1_0.di_tg_ctrl_n iqmod_mixer_0.iqmod_mixer_half_1.iqmod_mixer_se2diff$1_0.iqmod_mixer_se2diff_half_tg$2_0.iqmod_mixer_se2diff_inv_NF54$6_0.vin VSS VSS sg13_lv_nmos ad=0.19p pd=1.38u as=0.19p ps=1.38u w=1u l=0.13u
X48 iqmod_mfb_lpf_0.iqmod_mfb_lpf_half_0.iqmod_mfb_lpf_ota_core_hybrid_bm_half$1_0.iqmod_mfb_lpf_ota_core_tg$2_0.v_b di_analog_en iqmod_mfb_lpf_0.iqmod_mfb_lpf_half_0.iqmod_mfb_lpf_ota_core_hybrid_bm_half$1_0.iqmod_mfb_lpf_ota_core_tg$2_0.v_a VSS sg13_lv_nmos ad=0.19p pd=1.38u as=0.34p ps=2.68u w=1u l=0.13u
X49 iqmod_mixer_0.iqmod_mixer_half_1.iqmod_mixer_tg$1_0.di_tg_ctrl iqmod_mixer_0.iqmod_mixer_half_1.iqmod_mixer_se2diff$1_0.iqmod_mixer_se2diff_half_inv$2_0.iqmod_mixer_se2diff_inv_NF54$7_0.vin VSS VSS sg13_lv_nmos ad=0.19p pd=1.38u as=0.19p ps=1.38u w=1u l=0.13u
X50 VSS iqmod_mfb_lpf_0.iqmod_mfb_lpf_half_1.iqmod_mfb_lpf_ota_core_hybrid_bm_half$1_0.iqmod_mfb_lpf_ota_core_inv_NF20$2_1.vin iqmod_mfb_lpf_0.iqmod_mfb_lpf_half_0.iqmod_mfb_lpf_ota_core_hybrid_bm_half$1_0.iqmod_mfb_lpf_ota_core_tg$2_0.v_a VSS sg13_lv_nmos ad=0.19p pd=1.38u as=0.19p ps=1.38u w=1u l=1u
X51 iqmod_mixer_0.iqmod_mixer_half_0.iqmod_mixer_se2diff$1_0.iqmod_mixer_se2diff_half_tg$2_0.iqmod_mixer_se2diff_tg_NF6$3_0.v_b VSS iqmod_mixer_0.iqmod_mixer_half_0.iqmod_mixer_se2diff$1_0.iqmod_mixer_se2diff_half_inv$2_0.iqmod_mixer_se2diff_inv_NF6$7_0.vin VDD sg13_lv_pmos ad=0.57p pd=3.38u as=1.02p ps=6.68u w=3u l=0.13u
X52 iqmod_mixer_0.iqmod_mixer_half_0.iqmod_mixer_tg$1_0.di_tg_ctrl iqmod_mixer_0.iqmod_mixer_half_0.iqmod_mixer_se2diff$1_0.iqmod_mixer_se2diff_half_inv$2_0.iqmod_mixer_se2diff_inv_NF54$7_0.vin VDD VDD sg13_lv_pmos ad=0.57p pd=3.38u as=0.57p ps=3.38u w=3u l=0.13u
X53 iqmod_mfb_lpf_0.iqmod_mfb_lpf_half_0.iqmod_mfb_lpf_ota_core_hybrid_bm_half$1_0.iqmod_mfb_lpf_ota_core_tg$2_0.v_b iqmod_mfb_lpf_0.iqmod_mfb_lpf_half_0.iqmod_mfb_lpf_ota_core_hybrid_bm_half$1_0.iqmod_mfb_lpf_ota_core_tg$2_0.v_a VSS VSS sg13_lv_nmos ad=0.19p pd=1.38u as=0.19p ps=1.38u w=1u l=1u
X54 VDD iqmod_mixer_0.iqmod_mixer_half_1.iqmod_mixer_se2diff$1_0.iqmod_mixer_se2diff_half_inv$2_0.iqmod_mixer_se2diff_inv_NF54$7_0.vin iqmod_mixer_0.iqmod_mixer_half_1.iqmod_mixer_tg$1_0.di_tg_ctrl VDD sg13_lv_pmos ad=0.57p pd=3.38u as=0.57p ps=3.38u w=3u l=0.13u
X55 iqmod_mixer_0.iqmod_mixer_half_0.iqmod_mixer_tg$1_0.di_tg_ctrl iqmod_mixer_0.iqmod_mixer_half_0.iqmod_mixer_se2diff$1_0.iqmod_mixer_se2diff_half_inv$2_0.iqmod_mixer_se2diff_inv_NF54$7_0.vin VSS VSS sg13_lv_nmos ad=0.19p pd=1.38u as=0.19p ps=1.38u w=1u l=0.13u
X56 VDD VDD VDD VDD sg13_lv_pmos ad=1.02p pd=6.68u as=0 ps=0 w=3u l=0.13u
X57 vinp_I iqmod_spdt_switch_1.spdt_switch_inv_0.vin iqmod_spdt_switch_1.v_c VDD sg13_lv_pmos ad=1.14p pd=6.38u as=1.14p ps=6.38u w=6u l=0.13u
X58 iqmod_spdt_switch_1.v_c iqmod_spdt_switch_1.spdt_switch_inv_0.vout di_ds_I_p VDD sg13_lv_pmos ad=1.14p pd=6.38u as=2.04p ps=12.68u w=6u l=0.13u
X59 VDD iqmod_mfb_lpf_0.iqmod_mfb_lpf_half_1.iqmod_mfb_lpf_ota_core_hybrid_bm_half$1_0.iqmod_mfb_lpf_ota_core_inv_NF20$2_1.vin iqmod_mixer_0.vinp_IF VDD sg13_lv_pmos ad=1.14p pd=6.38u as=1.14p ps=6.38u w=6u l=1u
X60 VSS VSS VSS VSS sg13_lv_nmos ad=0.34p pd=2.68u as=0 ps=0 w=1u l=1u
X61 VSS iqmod_mixer_0.iqmod_mixer_half_1.iqmod_mixer_se2diff$1_0.iqmod_mixer_se2diff_half_tg$2_0.iqmod_mixer_se2diff_inv_NF54$6_0.vin iqmod_mixer_0.iqmod_mixer_half_1.iqmod_mixer_tg$1_0.di_tg_ctrl_n VSS sg13_lv_nmos ad=0.19p pd=1.38u as=0.19p ps=1.38u w=1u l=0.13u
X62 iqmod_mfb_lpf_0.iqmod_mfb_lpf_half_0.iqmod_mfb_lpf_ota_core_hybrid_bm_half$1_0.iqmod_mfb_lpf_ota_core_inv_NF20$2_0.vout iqmod_mixer_0.vinp_IF VSS VSS sg13_lv_nmos ad=0.19p pd=1.38u as=0.19p ps=1.38u w=1u l=1u
X63 di_ds_I_n iqmod_spdt_switch_0.spdt_switch_inv_0.vin iqmod_spdt_switch_0.v_c VSS sg13_lv_nmos ad=0.34p pd=2.68u as=0.19p ps=1.38u w=1u l=0.13u
X64 iqmod_mixer_0.vinp_IF iqmod_mixer_0.iqmod_mixer_half_1.iqmod_mixer_tg$1_0.di_tg_ctrl_n voutp_I_RF VDD sg13_lv_pmos ad=1.71p pd=9.38u as=1.71p ps=9.38u w=9u l=0.13u
X65 VDD iqmod_mixer_0.iqmod_mixer_half_0.iqmod_mixer_se2diff$1_0.iqmod_mixer_se2diff_half_tg$2_0.iqmod_mixer_se2diff_inv_NF54$6_0.vin iqmod_mixer_0.iqmod_mixer_half_0.iqmod_mixer_tg$1_0.di_tg_ctrl_n VDD sg13_lv_pmos ad=0.57p pd=3.38u as=0.57p ps=3.38u w=3u l=0.13u
X66 iqmod_mixer_0.iqmod_mixer_half_1.iqmod_mixer_tg$1_0.di_tg_ctrl_n iqmod_mixer_0.iqmod_mixer_half_1.iqmod_mixer_se2diff$1_0.iqmod_mixer_se2diff_half_tg$2_0.iqmod_mixer_se2diff_inv_NF54$6_0.vin VSS VSS sg13_lv_nmos ad=0.19p pd=1.38u as=0.19p ps=1.38u w=1u l=0.13u
X67 VDD iqmod_mixer_0.iqmod_mixer_half_1.iqmod_mixer_se2diff$1_0.iqmod_mixer_se2diff_half_inv$2_0.iqmod_mixer_se2diff_inv_NF54$7_0.vin iqmod_mixer_0.iqmod_mixer_half_1.iqmod_mixer_tg$1_0.di_tg_ctrl VDD sg13_lv_pmos ad=0.57p pd=3.38u as=0.57p ps=3.38u w=3u l=0.13u
X68 VDD VDD VDD VDD sg13_lv_pmos ad=1.02p pd=6.68u as=0 ps=0 w=3u l=0.13u
X69 iqmod_mixer_0.iqmod_mixer_half_0.iqmod_mixer_tg$1_0.di_tg_ctrl_n iqmod_mixer_0.iqmod_mixer_half_0.iqmod_mixer_se2diff$1_0.iqmod_mixer_se2diff_half_tg$2_0.iqmod_mixer_se2diff_inv_NF54$6_0.vin VDD VDD sg13_lv_pmos ad=0.57p pd=3.38u as=0.57p ps=3.38u w=3u l=0.13u
X70 iqmod_mixer_0.iqmod_mixer_half_1.iqmod_mixer_se2diff$1_0.iqmod_mixer_se2diff_half_tg$2_0.iqmod_mixer_se2diff_inv_NF54$6_0.vin iqmod_mixer_0.iqmod_mixer_half_1.iqmod_mixer_se2diff$1_0.iqmod_mixer_se2diff_half_tg$2_0.iqmod_mixer_se2diff_inv_NF18$6_0.vin VDD VDD sg13_lv_pmos ad=0.57p pd=3.38u as=0.57p ps=3.38u w=3u l=0.13u
X71 VSS iqmod_mixer_0.vinp_IF iqmod_mfb_lpf_0.iqmod_mfb_lpf_half_0.iqmod_mfb_lpf_ota_core_hybrid_bm_half$1_0.iqmod_mfb_lpf_ota_core_inv_NF20$2_0.vout VSS sg13_lv_nmos ad=0.19p pd=1.38u as=0.19p ps=1.38u w=1u l=1u
X72 VSS iqmod_mixer_0.iqmod_mixer_half_0.iqmod_mixer_se2diff$1_0.iqmod_mixer_se2diff_half_inv$2_0.iqmod_mixer_se2diff_inv_NF54$7_0.vin iqmod_mixer_0.iqmod_mixer_half_0.iqmod_mixer_tg$1_0.di_tg_ctrl VSS sg13_lv_nmos ad=0.19p pd=1.38u as=0.19p ps=1.38u w=1u l=0.13u
X73 iqmod_mixer_0.vinn_IF iqmod_mfb_lpf_0.iqmod_mfb_lpf_half_0.iqmod_mfb_lpf_ota_core_hybrid_bm_half$1_0.iqmod_mfb_lpf_ota_core_inv_NF20$2_1.vin VSS VSS sg13_lv_nmos ad=0.19p pd=1.38u as=0.19p ps=1.38u w=1u l=1u
X74 iqmod_mfb_lpf_0.iqmod_mfb_lpf_half_0.C2_half iqmod_mfb_lpf_0.iqmod_mfb_lpf_half_0.iqmod_mfb_lpf_R3$1_0.v_a cap_cmim l=8u w=8u
X75 VSS iqmod_mfb_lpf_0.iqmod_mfb_lpf_half_1.iqmod_mfb_lpf_ota_core_hybrid_bm_half$1_0.iqmod_mfb_lpf_ota_core_tg$2_0.di_tg_ctrl_n iqmod_mfb_lpf_0.iqmod_mfb_lpf_half_1.iqmod_mfb_lpf_ota_core_hybrid_bm_half$1_0.iqmod_mfb_lpf_ota_core_spdt_switch$2_0.iqmod_mfb_lpf_ota_core_spdt_switch_inv$3_0.vout VSS sg13_lv_nmos ad=0.19p pd=1.38u as=0.19p ps=1.38u w=1u l=0.13u
X76 VDD iqmod_mixer_0.iqmod_mixer_half_1.iqmod_mixer_se2diff$1_0.iqmod_mixer_se2diff_half_tg$2_0.iqmod_mixer_se2diff_inv_NF18$6_0.vin iqmod_mixer_0.iqmod_mixer_half_1.iqmod_mixer_se2diff$1_0.iqmod_mixer_se2diff_half_tg$2_0.iqmod_mixer_se2diff_inv_NF54$6_0.vin VDD sg13_lv_pmos ad=0.57p pd=3.38u as=0.57p ps=3.38u w=3u l=0.13u
X77 VDD iqmod_mixer_0.iqmod_mixer_half_1.iqmod_mixer_se2diff$1_0.iqmod_mixer_se2diff_half_inv$2_0.iqmod_mixer_se2diff_inv_NF54$7_0.vin iqmod_mixer_0.iqmod_mixer_half_1.iqmod_mixer_tg$1_0.di_tg_ctrl VDD sg13_lv_pmos ad=0.57p pd=3.38u as=0.57p ps=3.38u w=3u l=0.13u
X78 iqmod_mixer_0.iqmod_mixer_half_0.iqmod_mixer_tg$1_0.di_tg_ctrl iqmod_mixer_0.iqmod_mixer_half_0.iqmod_mixer_se2diff$1_0.iqmod_mixer_se2diff_half_inv$2_0.iqmod_mixer_se2diff_inv_NF54$7_0.vin VSS VSS sg13_lv_nmos ad=0.19p pd=1.38u as=0.19p ps=1.38u w=1u l=0.13u
X79 iqmod_mfb_lpf_0.iqmod_mfb_lpf_half_0.iqmod_mfb_lpf_ota_core_hybrid_bm_half$1_0.iqmod_mfb_lpf_ota_core_inv_NF6$2_1.vout di_analog_en iqmod_mfb_lpf_0.iqmod_mfb_lpf_half_0.iqmod_mfb_lpf_ota_core_hybrid_bm_half$1_0.iqmod_mfb_lpf_ota_core_inv_NF20$2_0.vout VSS sg13_lv_nmos ad=0.19p pd=1.38u as=0.19p ps=1.38u w=1u l=0.13u
X80 iqmod_mixer_0.iqmod_mixer_half_0.iqmod_mixer_tg$1_0.di_tg_ctrl_n iqmod_mixer_0.iqmod_mixer_half_0.iqmod_mixer_se2diff$1_0.iqmod_mixer_se2diff_half_tg$2_0.iqmod_mixer_se2diff_inv_NF54$6_0.vin VDD VDD sg13_lv_pmos ad=0.57p pd=3.38u as=0.57p ps=3.38u w=3u l=0.13u
X81 VSS iqmod_mfb_lpf_0.iqmod_mfb_lpf_half_0.iqmod_mfb_lpf_ota_core_hybrid_bm_half$1_0.iqmod_mfb_lpf_ota_core_tg$2_0.v_b iqmod_mixer_0.vinp_IF VSS sg13_lv_nmos ad=0.19p pd=1.38u as=0.19p ps=1.38u w=1u l=1u
X82 VSS iqmod_mixer_0.iqmod_mixer_half_1.iqmod_mixer_se2diff$1_0.iqmod_mixer_se2diff_half_tg$2_0.iqmod_mixer_se2diff_inv_NF54$6_0.vin iqmod_mixer_0.iqmod_mixer_half_1.iqmod_mixer_tg$1_0.di_tg_ctrl_n VSS sg13_lv_nmos ad=0.19p pd=1.38u as=0.19p ps=1.38u w=1u l=0.13u
X83 iqmod_mfb_lpf_0.iqmod_mfb_lpf_half_0.iqmod_mfb_lpf_R1$1_0.v_b iqmod_mfb_lpf_0.iqmod_mfb_lpf_half_0.C1_half cap_cmim l=8u w=8u
X84 voutn_I_RF iqmod_mixer_0.iqmod_mixer_half_0.iqmod_mixer_tg$1_0.di_tg_ctrl_n iqmod_mixer_0.vinn_IF VDD sg13_lv_pmos ad=1.71p pd=9.38u as=1.71p ps=9.38u w=9u l=0.13u
X85 di_ds_I_n iqmod_spdt_switch_0.spdt_switch_inv_0.vin iqmod_spdt_switch_0.v_c VSS sg13_lv_nmos ad=0.19p pd=1.38u as=0.19p ps=1.38u w=1u l=0.13u
X86 VSS iqmod_mixer_0.iqmod_mixer_half_0.iqmod_mixer_se2diff$1_0.iqmod_mixer_se2diff_half_tg$2_0.iqmod_mixer_se2diff_inv_NF18$6_0.vin iqmod_mixer_0.iqmod_mixer_half_0.iqmod_mixer_se2diff$1_0.iqmod_mixer_se2diff_half_tg$2_0.iqmod_mixer_se2diff_inv_NF54$6_0.vin VSS sg13_lv_nmos ad=0.19p pd=1.38u as=0.19p ps=1.38u w=1u l=0.13u
X87 VSS iqmod_mfb_lpf_0.iqmod_mfb_lpf_half_0.iqmod_mfb_lpf_ota_core_hybrid_bm_half$1_0.iqmod_mfb_lpf_ota_core_inv_NF20$2_0.vout iqmod_mfb_lpf_0.iqmod_mfb_lpf_half_0.iqmod_mfb_lpf_ota_core_hybrid_bm_half$1_0.iqmod_mfb_lpf_ota_core_inv_NF6$2_1.vout VSS sg13_lv_nmos ad=0.19p pd=1.38u as=0.19p ps=1.38u w=1u l=1u
X88 iqmod_mixer_0.iqmod_mixer_half_1.iqmod_mixer_se2diff$1_0.iqmod_mixer_se2diff_half_inv$2_0.iqmod_mixer_se2diff_inv_NF54$7_0.vin iqmod_mixer_0.iqmod_mixer_half_1.iqmod_mixer_se2diff$1_0.iqmod_mixer_se2diff_half_inv$2_0.iqmod_mixer_se2diff_inv_NF18$7_0.vin VSS VSS sg13_lv_nmos ad=0.19p pd=1.38u as=0.19p ps=1.38u w=1u l=0.13u
X89 iqmod_mixer_0.vinn_IF iqmod_mixer_0.iqmod_mixer_half_0.iqmod_mixer_tg$1_0.di_tg_ctrl_n voutn_I_RF VDD sg13_lv_pmos ad=1.71p pd=9.38u as=1.71p ps=9.38u w=9u l=0.13u
X90 VDD VDD VDD VDD sg13_lv_pmos ad=2.04p pd=12.68u as=0 ps=0 w=6u l=1u
X91 VDD iqmod_mixer_0.iqmod_mixer_half_0.iqmod_mixer_se2diff$1_0.iqmod_mixer_se2diff_half_tg$2_0.iqmod_mixer_se2diff_inv_NF54$6_0.vin iqmod_mixer_0.iqmod_mixer_half_0.iqmod_mixer_tg$1_0.di_tg_ctrl_n VDD sg13_lv_pmos ad=0.57p pd=3.38u as=0.57p ps=3.38u w=3u l=0.13u
X92 VSS iqmod_mixer_0.iqmod_mixer_half_0.iqmod_mixer_se2diff$1_0.iqmod_mixer_se2diff_half_inv$2_0.iqmod_mixer_se2diff_inv_NF54$7_0.vin iqmod_mixer_0.iqmod_mixer_half_0.iqmod_mixer_tg$1_0.di_tg_ctrl VSS sg13_lv_nmos ad=0.19p pd=1.38u as=0.19p ps=1.38u w=1u l=0.13u
X93 voutn_I_RF iqmod_mixer_0.iqmod_mixer_half_0.iqmod_mixer_tg$1_0.di_tg_ctrl iqmod_mixer_0.vinn_IF VSS sg13_lv_nmos ad=0.57p pd=3.38u as=0.57p ps=3.38u w=3u l=0.13u
X94 VDD VDD VDD VDD sg13_lv_pmos ad=1.14p pd=6.38u as=0 ps=0 w=6u l=1u
X95 iqmod_mixer_0.iqmod_mixer_half_1.iqmod_mixer_tg$1_0.di_tg_ctrl_n iqmod_mixer_0.iqmod_mixer_half_1.iqmod_mixer_se2diff$1_0.iqmod_mixer_se2diff_half_tg$2_0.iqmod_mixer_se2diff_inv_NF54$6_0.vin VDD VDD sg13_lv_pmos ad=0.57p pd=3.38u as=0.57p ps=3.38u w=3u l=0.13u
X96 iqmod_mixer_0.iqmod_mixer_half_0.iqmod_mixer_se2diff$1_0.iqmod_mixer_se2diff_half_inv$2_0.iqmod_mixer_se2diff_inv_NF54$7_0.vin iqmod_mixer_0.iqmod_mixer_half_0.iqmod_mixer_se2diff$1_0.iqmod_mixer_se2diff_half_inv$2_0.iqmod_mixer_se2diff_inv_NF18$7_0.vin VDD VDD sg13_lv_pmos ad=0.57p pd=3.38u as=0.57p ps=3.38u w=3u l=0.13u
X97 voutp_I_RF iqmod_mixer_0.iqmod_mixer_half_1.iqmod_mixer_tg$1_0.di_tg_ctrl_n iqmod_mixer_0.vinp_IF VDD sg13_lv_pmos ad=1.71p pd=9.38u as=1.71p ps=9.38u w=9u l=0.13u
X98 VSS iqmod_mixer_0.iqmod_mixer_half_1.iqmod_mixer_se2diff$1_0.iqmod_mixer_se2diff_half_inv$2_0.iqmod_mixer_se2diff_inv_NF18$7_0.vin iqmod_mixer_0.iqmod_mixer_half_1.iqmod_mixer_se2diff$1_0.iqmod_mixer_se2diff_half_inv$2_0.iqmod_mixer_se2diff_inv_NF54$7_0.vin VSS sg13_lv_nmos ad=0.19p pd=1.38u as=0.19p ps=1.38u w=1u l=0.13u
X99 voutn_I_RF iqmod_mixer_0.iqmod_mixer_half_0.iqmod_mixer_tg$1_0.di_tg_ctrl_n iqmod_mixer_0.vinn_IF VDD sg13_lv_pmos ad=1.71p pd=9.38u as=1.71p ps=9.38u w=9u l=0.13u
X100 VDD iqmod_mixer_0.iqmod_mixer_half_1.iqmod_mixer_se2diff$1_0.iqmod_mixer_se2diff_half_inv$2_0.iqmod_mixer_se2diff_inv_NF2$7_1.vout iqmod_mixer_0.iqmod_mixer_half_1.iqmod_mixer_se2diff$1_0.iqmod_mixer_se2diff_half_inv$2_0.iqmod_mixer_se2diff_inv_NF6$7_1.vin VDD sg13_lv_pmos ad=0.57p pd=3.38u as=0.57p ps=3.38u w=3u l=0.13u
X101 iqmod_mixer_0.vinn_IF iqmod_mixer_0.iqmod_mixer_half_0.iqmod_mixer_tg$1_0.di_tg_ctrl voutn_I_RF VSS sg13_lv_nmos ad=0.57p pd=3.38u as=0.57p ps=3.38u w=3u l=0.13u
X102 voutp_I_RF iqmod_mixer_0.iqmod_mixer_half_1.iqmod_mixer_tg$1_0.di_tg_ctrl_n voutp_I_RF VSS sg13_lv_nmos ad=0.57p pd=3.38u as=0 ps=0 w=3u l=0.13u
X103 iqmod_mixer_0.iqmod_mixer_half_0.iqmod_mixer_tg$1_0.di_tg_ctrl_n iqmod_mixer_0.iqmod_mixer_half_0.iqmod_mixer_se2diff$1_0.iqmod_mixer_se2diff_half_tg$2_0.iqmod_mixer_se2diff_inv_NF54$6_0.vin VDD VDD sg13_lv_pmos ad=0.57p pd=3.38u as=0.57p ps=3.38u w=3u l=0.13u
X104 VDD iqmod_mixer_0.iqmod_mixer_half_1.iqmod_mixer_se2diff$1_0.iqmod_mixer_se2diff_half_tg$2_0.iqmod_mixer_se2diff_inv_NF54$6_0.vin iqmod_mixer_0.iqmod_mixer_half_1.iqmod_mixer_tg$1_0.di_tg_ctrl_n VDD sg13_lv_pmos ad=0.57p pd=3.38u as=0.57p ps=3.38u w=3u l=0.13u
X105 VSS iqmod_mfb_lpf_0.iqmod_mfb_lpf_half_0.iqmod_mfb_lpf_ota_core_hybrid_bm_half$1_0.iqmod_mfb_lpf_ota_core_inv_NF20$2_1.vin iqmod_mixer_0.vinn_IF VSS sg13_lv_nmos ad=0.19p pd=1.38u as=0.19p ps=1.38u w=1u l=1u
X106 iqmod_mfb_lpf_0.iqmod_mfb_lpf_half_0.iqmod_mfb_lpf_ota_core_hybrid_bm_half$1_0.iqmod_mfb_lpf_ota_core_inv_NF20$2_0.vout iqmod_mfb_lpf_0.iqmod_mfb_lpf_half_0.iqmod_mfb_lpf_ota_core_hybrid_bm_half$1_0.iqmod_mfb_lpf_ota_core_tg$2_0.di_tg_ctrl_n iqmod_mfb_lpf_0.iqmod_mfb_lpf_half_0.iqmod_mfb_lpf_ota_core_hybrid_bm_half$1_0.iqmod_mfb_lpf_ota_core_inv_NF6$2_1.vout VDD sg13_lv_pmos ad=1.14p pd=6.38u as=1.14p ps=6.38u w=6u l=0.13u
X107 VDD iqmod_mixer_0.iqmod_mixer_half_0.iqmod_mixer_se2diff$1_0.iqmod_mixer_se2diff_half_inv$2_0.iqmod_mixer_se2diff_inv_NF18$7_0.vin iqmod_mixer_0.iqmod_mixer_half_0.iqmod_mixer_se2diff$1_0.iqmod_mixer_se2diff_half_inv$2_0.iqmod_mixer_se2diff_inv_NF54$7_0.vin VDD sg13_lv_pmos ad=0.57p pd=3.38u as=0.57p ps=3.38u w=3u l=0.13u
X108 voutp_I_RF iqmod_mixer_0.iqmod_mixer_half_1.iqmod_mixer_tg$1_0.di_tg_ctrl iqmod_mixer_0.vinp_IF VSS sg13_lv_nmos ad=0.57p pd=3.38u as=0.57p ps=3.38u w=3u l=0.13u
X109 iqmod_mfb_lpf_0.iqmod_mfb_lpf_half_0.iqmod_mfb_lpf_ota_core_hybrid_bm_half$1_0.iqmod_mfb_lpf_ota_core_tg$2_0.v_b di_analog_en iqmod_mfb_lpf_0.iqmod_mfb_lpf_half_0.iqmod_mfb_lpf_ota_core_hybrid_bm_half$1_0.iqmod_mfb_lpf_ota_core_tg$2_0.v_a VSS sg13_lv_nmos ad=0.19p pd=1.38u as=0.19p ps=1.38u w=1u l=0.13u
X110 voutn_I_RF iqmod_mixer_0.iqmod_mixer_half_0.iqmod_mixer_tg$1_0.di_tg_ctrl iqmod_mixer_0.vinn_IF VSS sg13_lv_nmos ad=0.57p pd=3.38u as=0.57p ps=3.38u w=3u l=0.13u
X111 voutp_I_RF iqmod_mixer_0.iqmod_mixer_half_1.iqmod_mixer_tg$1_0.di_tg_ctrl_n voutp_I_RF VSS sg13_lv_nmos ad=0.57p pd=3.38u as=0 ps=0 w=3u l=0.13u
X112 a_17685_10452# a_23971_10752# VSS rhigh l=31u w=0.5u
X113 iqmod_mixer_0.iqmod_mixer_half_0.iqmod_mixer_tg$1_0.di_tg_ctrl iqmod_mixer_0.iqmod_mixer_half_0.iqmod_mixer_se2diff$1_0.iqmod_mixer_se2diff_half_inv$2_0.iqmod_mixer_se2diff_inv_NF54$7_0.vin VSS VSS sg13_lv_nmos ad=0.19p pd=1.38u as=0.19p ps=1.38u w=1u l=0.13u
X114 VSS iqmod_mfb_lpf_0.iqmod_mfb_lpf_half_0.iqmod_mfb_lpf_ota_core_hybrid_bm_half$1_0.iqmod_mfb_lpf_ota_core_tg$2_0.v_b iqmod_mixer_0.vinp_IF VSS sg13_lv_nmos ad=0.19p pd=1.38u as=0.19p ps=1.38u w=1u l=1u
X115 iqmod_mixer_0.iqmod_mixer_half_1.iqmod_mixer_tg$1_0.di_tg_ctrl iqmod_mixer_0.iqmod_mixer_half_1.iqmod_mixer_se2diff$1_0.iqmod_mixer_se2diff_half_inv$2_0.iqmod_mixer_se2diff_inv_NF54$7_0.vin VSS VSS sg13_lv_nmos ad=0.19p pd=1.38u as=0.19p ps=1.38u w=1u l=0.13u
X116 VSS iqmod_mixer_0.iqmod_mixer_half_1.iqmod_mixer_se2diff$1_0.iqmod_mixer_se2diff_half_inv$2_0.iqmod_mixer_se2diff_inv_NF6$7_1.vin iqmod_mixer_0.iqmod_mixer_half_1.iqmod_mixer_se2diff$1_0.iqmod_mixer_se2diff_half_inv$2_0.iqmod_mixer_se2diff_inv_NF2$7_1.vout VSS sg13_lv_nmos ad=0.19p pd=1.38u as=0.19p ps=1.38u w=1u l=0.13u
X117 iqmod_mixer_0.vinn_IF iqmod_mfb_lpf_0.iqmod_mfb_lpf_half_0.iqmod_mfb_lpf_ota_core_hybrid_bm_half$1_0.iqmod_mfb_lpf_ota_core_inv_NF20$2_1.vin VSS VSS sg13_lv_nmos ad=0.19p pd=1.38u as=0.19p ps=1.38u w=1u l=1u
X118 iqmod_mfb_lpf_0.iqmod_mfb_lpf_half_0.C1_half iqmod_mfb_lpf_0.iqmod_mfb_lpf_half_0.iqmod_mfb_lpf_R1$1_0.v_b cap_cmim l=8u w=8u
X119 VSS iqmod_mixer_0.iqmod_mixer_half_0.iqmod_mixer_se2diff$1_0.iqmod_mixer_se2diff_half_tg$2_0.iqmod_mixer_se2diff_inv_NF18$6_0.vin iqmod_mixer_0.iqmod_mixer_half_0.iqmod_mixer_se2diff$1_0.iqmod_mixer_se2diff_half_tg$2_0.iqmod_mixer_se2diff_inv_NF54$6_0.vin VSS sg13_lv_nmos ad=0.19p pd=1.38u as=0.19p ps=1.38u w=1u l=0.13u
X120 VSS VSS VSS VSS sg13_lv_nmos ad=0.19p pd=1.38u as=0 ps=0 w=1u l=0.13u
X121 iqmod_mixer_0.iqmod_mixer_half_0.iqmod_mixer_tg$1_0.di_tg_ctrl iqmod_mixer_0.iqmod_mixer_half_0.iqmod_mixer_se2diff$1_0.iqmod_mixer_se2diff_half_inv$2_0.iqmod_mixer_se2diff_inv_NF54$7_0.vin VDD VDD sg13_lv_pmos ad=0.57p pd=3.38u as=0.57p ps=3.38u w=3u l=0.13u
X122 iqmod_mixer_0.iqmod_mixer_half_1.iqmod_mixer_se2diff$1_0.iqmod_mixer_se2diff_half_tg$2_0.iqmod_mixer_se2diff_inv_NF54$6_0.vin iqmod_mixer_0.iqmod_mixer_half_1.iqmod_mixer_se2diff$1_0.iqmod_mixer_se2diff_half_tg$2_0.iqmod_mixer_se2diff_inv_NF18$6_0.vin VSS VSS sg13_lv_nmos ad=0.19p pd=1.38u as=0.19p ps=1.38u w=1u l=0.13u
X123 VSS iqmod_mixer_0.iqmod_mixer_half_1.iqmod_mixer_se2diff$1_0.iqmod_mixer_se2diff_half_inv$2_0.iqmod_mixer_se2diff_inv_NF54$7_0.vin iqmod_mixer_0.iqmod_mixer_half_1.iqmod_mixer_tg$1_0.di_tg_ctrl VSS sg13_lv_nmos ad=0.19p pd=1.38u as=0.19p ps=1.38u w=1u l=0.13u
X124 voutp_I_RF iqmod_mixer_0.iqmod_mixer_half_1.iqmod_mixer_tg$1_0.di_tg_ctrl iqmod_mixer_0.vinp_IF VSS sg13_lv_nmos ad=0.57p pd=3.38u as=0.57p ps=3.38u w=3u l=0.13u
X125 iqmod_mfb_lpf_0.iqmod_mfb_lpf_half_0.iqmod_mfb_lpf_ota_core_hybrid_bm_half$1_0.iqmod_mfb_lpf_ota_core_tg$2_0.v_a iqmod_mfb_lpf_0.iqmod_mfb_lpf_half_0.iqmod_mfb_lpf_ota_core_hybrid_bm_half$1_0.iqmod_mfb_lpf_ota_core_inv_NF20$2_1.vin VSS VSS sg13_lv_nmos ad=0.19p pd=1.38u as=0.19p ps=1.38u w=1u l=1u