* PEX produced on Sat Mar 28 09:40:30 PM CET 2026 using /foss/tools/sak/sak-pex.sh with m=3 and s=1
* NGSPICE file created from iqmod_mixer_se2diff_pex.ext - technology: ihp-sg13g2

.subckt iqmod_mixer_se2diff_pex VDD vin voutp VSS voutn
X0 iqmod_mixer_se2diff_pex_half_inv_0.iqmod_mixer_se2diff_pex_inv_NF2$1_1.vout.t6 iqmod_mixer_se2diff_pex_half_inv_0.iqmod_mixer_se2diff_pex_inv_NF6$1_2.vout.t11 VDD.t17 VDD.t1 sg13_lv_pmos ad=0.57p pd=3.38u as=0.57p ps=3.38u w=3u l=0.13u
X1 VDD.t52 VDD.t51 VDD.t52 VDD.t38 sg13_lv_pmos ad=0.57p pd=3.38u as=0 ps=0 w=3u l=0.13u
X2 VSS.t199 VSS.t258 VSS.t199 VSS.t228 sg13_lv_nmos ad=0.19p pd=1.38u as=0 ps=0 w=1u l=0.13u
X3 VSS.t278 iqmod_mixer_se2diff_pex_half_tg_0.iqmod_mixer_se2diff_pex_inv_NF6_0.vout.t0 iqmod_mixer_se2diff_pex_half_tg_0.iqmod_mixer_se2diff_pex_inv_NF18_0.vout.t0 VSS.t169 sg13_lv_nmos ad=0.19p pd=1.38u as=0.19p ps=1.38u w=1u l=0.13u
X4 VSS.t149 iqmod_mixer_se2diff_pex_half_inv_0.iqmod_mixer_se2diff_pex_inv_NF18$1_0.vout.t0 voutp.t26 VSS.t88 sg13_lv_nmos ad=0.19p pd=1.38u as=0.19p ps=1.38u w=1u l=0.13u
X5 voutn.t2 iqmod_mixer_se2diff_pex_half_tg_0.iqmod_mixer_se2diff_pex_inv_NF18_0.vout.t0 VSS.t101 VSS.t102 sg13_lv_nmos ad=0.19p pd=1.38u as=0.19p ps=1.38u w=1u l=0.13u
X6 voutp.t31 iqmod_mixer_se2diff_pex_half_inv_0.iqmod_mixer_se2diff_pex_inv_NF18$1_0.vout.t0 VSS.t143 VSS.t81 sg13_lv_nmos ad=0.19p pd=1.38u as=0.19p ps=1.38u w=1u l=0.13u
X7 iqmod_mixer_se2diff_pex_half_inv_0.iqmod_mixer_se2diff_pex_inv_NF6$1_2.vout.t0 iqmod_mixer_se2diff_pex_half_inv_0.iqmod_mixer_se2diff_pex_inv_NF6$1_2.vin.t6 VSS.t190 VSS.t16 sg13_lv_nmos ad=0.19p pd=1.38u as=0.19p ps=1.38u w=1u l=0.13u
X8 VSS.t173 iqmod_mixer_se2diff_pex_half_inv_0.iqmod_mixer_se2diff_pex_inv_NF6$1_1.vout.t0 iqmod_mixer_se2diff_pex_half_inv_0.iqmod_mixer_se2diff_pex_inv_NF18$1_0.vout.t0 VSS.t172 sg13_lv_nmos ad=0.19p pd=1.38u as=0.19p ps=1.38u w=1u l=0.13u
X9 iqmod_mixer_se2diff_pex_half_inv_0.iqmod_mixer_se2diff_pex_inv_NF18$1_0.vout.t0 iqmod_mixer_se2diff_pex_half_inv_0.iqmod_mixer_se2diff_pex_inv_NF6$1_1.vout.t0 VSS.t165 VSS.t164 sg13_lv_nmos ad=0.19p pd=1.38u as=0.19p ps=1.38u w=1u l=0.13u
X10 voutn.t31 iqmod_mixer_se2diff_pex_half_tg_0.iqmod_mixer_se2diff_pex_inv_NF18_0.vout.t0 VDD.t79 VDD.t38 sg13_lv_pmos ad=0.57p pd=3.38u as=0.57p ps=3.38u w=3u l=0.13u
X11 voutn.t37 iqmod_mixer_se2diff_pex_half_tg_0.iqmod_mixer_se2diff_pex_inv_NF18_0.vout.t0 VDD.t125 VDD.t38 sg13_lv_pmos ad=0.57p pd=3.38u as=0.57p ps=3.38u w=3u l=0.13u
X12 voutn.t52 iqmod_mixer_se2diff_pex_half_tg_0.iqmod_mixer_se2diff_pex_inv_NF18_0.vout.t0 VDD.t75 VDD.t38 sg13_lv_pmos ad=0.57p pd=3.38u as=0.57p ps=3.38u w=3u l=0.13u
X13 iqmod_mixer_se2diff_pex_half_tg_0.iqmod_mixer_se2diff_pex_inv_NF6_0.vout.t0 iqmod_mixer_se2diff_pex_half_inv_0.iqmod_mixer_se2diff_pex_inv_NF2$1_1.vout.t8 VDD.t131 VDD.t38 sg13_lv_pmos ad=0.57p pd=3.38u as=0.57p ps=3.38u w=3u l=0.13u
X14 VDD.t229 iqmod_mixer_se2diff_pex_half_tg_0.iqmod_mixer_se2diff_pex_inv_NF6_0.vout.t0 iqmod_mixer_se2diff_pex_half_tg_0.iqmod_mixer_se2diff_pex_inv_NF18_0.vout.t0 VDD.t38 sg13_lv_pmos ad=0.57p pd=3.38u as=0.57p ps=3.38u w=3u l=0.13u
X15 voutn.t32 iqmod_mixer_se2diff_pex_half_tg_0.iqmod_mixer_se2diff_pex_inv_NF18_0.vout.t0 VDD.t109 VDD.t38 sg13_lv_pmos ad=0.57p pd=3.38u as=0.57p ps=3.38u w=3u l=0.13u
X16 voutn.t42 iqmod_mixer_se2diff_pex_half_tg_0.iqmod_mixer_se2diff_pex_inv_NF18_0.vout.t0 VDD.t121 VDD.t38 sg13_lv_pmos ad=0.57p pd=3.38u as=0.57p ps=3.38u w=3u l=0.13u
X17 VDD.t60 VDD.t58 VDD.t59 VDD.t38 sg13_lv_pmos ad=1.02p pd=6.68u as=0 ps=0 w=3u l=0.13u
X18 voutn.t0 iqmod_mixer_se2diff_pex_half_tg_0.iqmod_mixer_se2diff_pex_inv_NF18_0.vout.t0 VDD.t105 VDD.t38 sg13_lv_pmos ad=0.57p pd=3.38u as=0.57p ps=3.38u w=3u l=0.13u
X19 VSS.t119 iqmod_mixer_se2diff_pex_half_inv_0.iqmod_mixer_se2diff_pex_inv_NF18$1_0.vout.t0 voutp.t8 VSS.t43 sg13_lv_nmos ad=0.19p pd=1.38u as=0.19p ps=1.38u w=1u l=0.13u
X20 iqmod_mixer_se2diff_pex_half_tg_0.iqmod_mixer_se2diff_pex_inv_NF6_0.vout.t0 iqmod_mixer_se2diff_pex_half_inv_0.iqmod_mixer_se2diff_pex_inv_NF2$1_1.vout.t8 VDD.t54 VDD.t38 sg13_lv_pmos ad=0.57p pd=3.38u as=0.57p ps=3.38u w=3u l=0.13u
X21 voutp.t23 iqmod_mixer_se2diff_pex_half_inv_0.iqmod_mixer_se2diff_pex_inv_NF18$1_0.vout.t0 VSS.t113 VSS.t36 sg13_lv_nmos ad=0.19p pd=1.38u as=0.19p ps=1.38u w=1u l=0.13u
X22 VDD.t30 iqmod_mixer_se2diff_pex_half_inv_0.iqmod_mixer_se2diff_pex_inv_NF6$1_1.vout.t0 iqmod_mixer_se2diff_pex_half_inv_0.iqmod_mixer_se2diff_pex_inv_NF18$1_0.vout.t0 VDD.t1 sg13_lv_pmos ad=0.57p pd=3.38u as=0.57p ps=3.38u w=3u l=0.13u
X23 voutn.t46 iqmod_mixer_se2diff_pex_half_tg_0.iqmod_mixer_se2diff_pex_inv_NF18_0.vout.t0 VDD.t101 VDD.t38 sg13_lv_pmos ad=0.57p pd=3.38u as=0.57p ps=3.38u w=3u l=0.13u
X24 iqmod_mixer_se2diff_pex_half_inv_0.iqmod_mixer_se2diff_pex_inv_NF18$1_0.vout.t0 iqmod_mixer_se2diff_pex_half_inv_0.iqmod_mixer_se2diff_pex_inv_NF6$1_1.vout.t0 VDD.t201 VDD.t1 sg13_lv_pmos ad=0.57p pd=3.38u as=0.57p ps=3.38u w=3u l=0.13u
X25 VDD.t159 iqmod_mixer_se2diff_pex_half_inv_0.iqmod_mixer_se2diff_pex_inv_NF18$1_0.vout.t0 voutp.t36 VDD.t32 sg13_lv_pmos ad=0.57p pd=3.38u as=0.57p ps=3.38u w=3u l=0.13u
X26 VSS.t68 iqmod_mixer_se2diff_pex_half_tg_0.iqmod_mixer_se2diff_pex_inv_NF18_0.vout.t0 voutn.t23 VSS.t67 sg13_lv_nmos ad=0.19p pd=1.38u as=0.19p ps=1.38u w=1u l=0.13u
X27 iqmod_mixer_se2diff_pex_half_tg_0.iqmod_mixer_se2diff_pex_inv_NF18_0.vout.t1 iqmod_mixer_se2diff_pex_half_tg_0.iqmod_mixer_se2diff_pex_inv_NF6_0.vout.t0 VSS.t290 VSS.t162 sg13_lv_nmos ad=0.19p pd=1.38u as=0.19p ps=1.38u w=1u l=0.13u
X28 voutp.t35 iqmod_mixer_se2diff_pex_half_inv_0.iqmod_mixer_se2diff_pex_inv_NF18$1_0.vout.t0 VDD.t155 VDD.t32 sg13_lv_pmos ad=0.57p pd=3.38u as=0.57p ps=3.38u w=3u l=0.13u
X29 voutn.t22 iqmod_mixer_se2diff_pex_half_tg_0.iqmod_mixer_se2diff_pex_inv_NF18_0.vout.t0 VSS.t62 VSS.t63 sg13_lv_nmos ad=0.19p pd=1.38u as=0.19p ps=1.38u w=1u l=0.13u
X30 VDD.t153 iqmod_mixer_se2diff_pex_half_inv_0.iqmod_mixer_se2diff_pex_inv_NF18$1_0.vout.t0 voutp.t41 VDD.t32 sg13_lv_pmos ad=0.57p pd=3.38u as=0.57p ps=3.38u w=3u l=0.13u
X31 iqmod_mixer_se2diff_pex_half_inv_0.iqmod_mixer_se2diff_pex_inv_NF2$1_1.vout.t2 iqmod_mixer_se2diff_pex_half_tg_0.iqmod_mixer_se2diff_pex_tg_NF6_0.v_b.t6 VDD.t209 VDD.t38 sg13_lv_pmos ad=0.57p pd=3.38u as=0.57p ps=3.38u w=3u l=0.13u
X32 voutp.t44 iqmod_mixer_se2diff_pex_half_inv_0.iqmod_mixer_se2diff_pex_inv_NF18$1_0.vout.t0 VSS.t149 VSS.t90 sg13_lv_nmos ad=0.19p pd=1.38u as=0.19p ps=1.38u w=1u l=0.13u
X33 VSS.t195 VSS.t221 VSS.t195 VSS.t222 sg13_lv_nmos ad=0.19p pd=1.38u as=0 ps=0 w=1u l=0.13u
X34 iqmod_mixer_se2diff_pex_half_inv_0.iqmod_mixer_se2diff_pex_inv_NF2$1_0.vout.t7 VSS.t305 iqmod_mixer_se2diff_pex_half_tg_0.iqmod_mixer_se2diff_pex_tg_NF6_0.v_b.t4 VDD.t38 sg13_lv_pmos ad=1.02p pd=6.68u as=0.57p ps=3.38u w=3u l=0.13u
X35 VSS.t145 iqmod_mixer_se2diff_pex_half_inv_0.iqmod_mixer_se2diff_pex_inv_NF18$1_0.vout.t0 voutp.t31 VSS.t82 sg13_lv_nmos ad=0.19p pd=1.38u as=0.19p ps=1.38u w=1u l=0.13u
X36 VSS.t191 iqmod_mixer_se2diff_pex_half_inv_0.iqmod_mixer_se2diff_pex_inv_NF6$1_2.vin.t6 iqmod_mixer_se2diff_pex_half_inv_0.iqmod_mixer_se2diff_pex_inv_NF6$1_2.vout.t0 VSS.t18 sg13_lv_nmos ad=0.19p pd=1.38u as=0.19p ps=1.38u w=1u l=0.13u
X37 VDD.t50 VDD.t48 VDD.t49 VDD.t38 sg13_lv_pmos ad=1.02p pd=6.68u as=0 ps=0 w=3u l=0.13u
X38 iqmod_mixer_se2diff_pex_half_inv_0.iqmod_mixer_se2diff_pex_inv_NF2$1_1.vout.t0 iqmod_mixer_se2diff_pex_half_tg_0.iqmod_mixer_se2diff_pex_tg_NF6_0.v_b.t6 VDD.t44 VDD.t38 sg13_lv_pmos ad=0.57p pd=3.38u as=0.57p ps=3.38u w=3u l=0.13u
X39 iqmod_mixer_se2diff_pex_half_inv_0.iqmod_mixer_se2diff_pex_inv_NF2$1_0.vout.t5 VSS.t305 iqmod_mixer_se2diff_pex_half_tg_0.iqmod_mixer_se2diff_pex_tg_NF6_0.v_b.t5 VDD.t38 sg13_lv_pmos ad=0.57p pd=3.38u as=0.57p ps=3.38u w=3u l=0.13u
X40 iqmod_mixer_se2diff_pex_half_inv_0.iqmod_mixer_se2diff_pex_inv_NF18$1_0.vout.t0 iqmod_mixer_se2diff_pex_half_inv_0.iqmod_mixer_se2diff_pex_inv_NF6$1_1.vout.t0 VSS.t173 VSS.t174 sg13_lv_nmos ad=0.19p pd=1.38u as=0.19p ps=1.38u w=1u l=0.13u
X41 voutn.t24 iqmod_mixer_se2diff_pex_half_tg_0.iqmod_mixer_se2diff_pex_inv_NF18_0.vout.t0 VSS.t56 VSS.t57 sg13_lv_nmos ad=0.19p pd=1.38u as=0.19p ps=1.38u w=1u l=0.13u
X42 VSS.t167 iqmod_mixer_se2diff_pex_half_inv_0.iqmod_mixer_se2diff_pex_inv_NF6$1_1.vout.t0 iqmod_mixer_se2diff_pex_half_inv_0.iqmod_mixer_se2diff_pex_inv_NF18$1_0.vout.t0 VSS.t166 sg13_lv_nmos ad=0.19p pd=1.38u as=0.19p ps=1.38u w=1u l=0.13u
X43 VDD.t10 VDD.t9 VDD.t10 VDD.t1 sg13_lv_pmos ad=0.57p pd=3.38u as=0 ps=0 w=3u l=0.13u
X44 iqmod_mixer_se2diff_pex_half_inv_0.iqmod_mixer_se2diff_pex_inv_NF6$1_1.vout.t0 iqmod_mixer_se2diff_pex_half_inv_0.iqmod_mixer_se2diff_pex_inv_NF6$1_2.vout.t10 VDD.t69 VDD.t1 sg13_lv_pmos ad=0.57p pd=3.38u as=0.57p ps=3.38u w=3u l=0.13u
X45 iqmod_mixer_se2diff_pex_half_tg_0.iqmod_mixer_se2diff_pex_inv_NF6_0.vout.t1 iqmod_mixer_se2diff_pex_half_inv_0.iqmod_mixer_se2diff_pex_inv_NF2$1_1.vout.t10 VSS.t296 VSS.t7 sg13_lv_nmos ad=0.19p pd=1.38u as=0.19p ps=1.38u w=1u l=0.13u
X46 VDD.t23 VDD.t21 VDD.t22 VDD.t1 sg13_lv_pmos ad=1.02p pd=6.68u as=0 ps=0 w=3u l=0.13u
X47 VSS.t294 iqmod_mixer_se2diff_pex_half_inv_0.iqmod_mixer_se2diff_pex_inv_NF2$1_1.vout.t10 iqmod_mixer_se2diff_pex_half_tg_0.iqmod_mixer_se2diff_pex_inv_NF6_0.vout.t0 VSS.t2 sg13_lv_nmos ad=0.19p pd=1.38u as=0.19p ps=1.38u w=1u l=0.13u
X48 VSS.t176 iqmod_mixer_se2diff_pex_half_inv_0.iqmod_mixer_se2diff_pex_inv_NF6$1_1.vout.t0 iqmod_mixer_se2diff_pex_half_inv_0.iqmod_mixer_se2diff_pex_inv_NF18$1_0.vout.t0 VSS.t175 sg13_lv_nmos ad=0.19p pd=1.38u as=0.19p ps=1.38u w=1u l=0.13u
X49 iqmod_mixer_se2diff_pex_half_inv_0.iqmod_mixer_se2diff_pex_inv_NF18$1_0.vout.t0 iqmod_mixer_se2diff_pex_half_inv_0.iqmod_mixer_se2diff_pex_inv_NF6$1_1.vout.t0 VSS.t167 VSS.t168 sg13_lv_nmos ad=0.19p pd=1.38u as=0.19p ps=1.38u w=1u l=0.13u
X50 voutp.t9 iqmod_mixer_se2diff_pex_half_inv_0.iqmod_mixer_se2diff_pex_inv_NF18$1_0.vout.t0 VSS.t119 VSS.t45 sg13_lv_nmos ad=0.19p pd=1.38u as=0.19p ps=1.38u w=1u l=0.13u
X51 VSS.t115 iqmod_mixer_se2diff_pex_half_inv_0.iqmod_mixer_se2diff_pex_inv_NF18$1_0.vout.t0 voutp.t23 VSS.t37 sg13_lv_nmos ad=0.19p pd=1.38u as=0.19p ps=1.38u w=1u l=0.13u
X52 iqmod_mixer_se2diff_pex_half_tg_0.iqmod_mixer_se2diff_pex_tg_NF6_0.v_b.t1 VDD.t250 iqmod_mixer_se2diff_pex_half_inv_0.iqmod_mixer_se2diff_pex_inv_NF2$1_0.vout.t2 VSS.t14 sg13_lv_nmos ad=0.19p pd=1.38u as=0.19p ps=1.38u w=1u l=0.13u
X53 VDD.t8 VDD.t6 VDD.t7 VDD.t1 sg13_lv_pmos ad=1.02p pd=6.68u as=0 ps=0 w=3u l=0.13u
X54 iqmod_mixer_se2diff_pex_half_inv_0.iqmod_mixer_se2diff_pex_inv_NF2$1_0.vout.t1 VDD.t250 iqmod_mixer_se2diff_pex_half_tg_0.iqmod_mixer_se2diff_pex_tg_NF6_0.v_b.t2 VSS.t11 sg13_lv_nmos ad=0.19p pd=1.38u as=0.19p ps=1.38u w=1u l=0.13u
X55 voutp.t15 iqmod_mixer_se2diff_pex_half_inv_0.iqmod_mixer_se2diff_pex_inv_NF18$1_0.vout.t0 VDD.t139 VDD.t32 sg13_lv_pmos ad=0.57p pd=3.38u as=0.57p ps=3.38u w=3u l=0.13u
X56 voutn.t26 iqmod_mixer_se2diff_pex_half_tg_0.iqmod_mixer_se2diff_pex_inv_NF18_0.vout.t0 VSS.t38 VSS.t39 sg13_lv_nmos ad=0.19p pd=1.38u as=0.19p ps=1.38u w=1u l=0.13u
X57 voutn.t49 iqmod_mixer_se2diff_pex_half_tg_0.iqmod_mixer_se2diff_pex_inv_NF18_0.vout.t0 VSS.t80 VSS.t81 sg13_lv_nmos ad=0.19p pd=1.38u as=0.19p ps=1.38u w=1u l=0.13u
X58 voutp.t4 iqmod_mixer_se2diff_pex_half_inv_0.iqmod_mixer_se2diff_pex_inv_NF18$1_0.vout.t0 VSS.t155 VSS.t99 sg13_lv_nmos ad=0.19p pd=1.38u as=0.19p ps=1.38u w=1u l=0.13u
X59 VDD.t137 iqmod_mixer_se2diff_pex_half_inv_0.iqmod_mixer_se2diff_pex_inv_NF18$1_0.vout.t0 voutp.t43 VDD.t32 sg13_lv_pmos ad=0.57p pd=3.38u as=0.57p ps=3.38u w=3u l=0.13u
X60 VSS.t151 iqmod_mixer_se2diff_pex_half_inv_0.iqmod_mixer_se2diff_pex_inv_NF18$1_0.vout.t0 voutp.t44 VSS.t91 sg13_lv_nmos ad=0.19p pd=1.38u as=0.19p ps=1.38u w=1u l=0.13u
X61 VDD.t165 iqmod_mixer_se2diff_pex_half_inv_0.iqmod_mixer_se2diff_pex_inv_NF18$1_0.vout.t0 voutp.t7 VDD.t32 sg13_lv_pmos ad=0.57p pd=3.38u as=0.57p ps=3.38u w=3u l=0.13u
X62 VSS.t77 iqmod_mixer_se2diff_pex_half_tg_0.iqmod_mixer_se2diff_pex_inv_NF18_0.vout.t0 voutn.t6 VSS.t76 sg13_lv_nmos ad=0.19p pd=1.38u as=0.19p ps=1.38u w=1u l=0.13u
X63 iqmod_mixer_se2diff_pex_half_inv_0.iqmod_mixer_se2diff_pex_inv_NF6$1_2.vout.t1 iqmod_mixer_se2diff_pex_half_inv_0.iqmod_mixer_se2diff_pex_inv_NF6$1_2.vin.t6 VSS.t191 VSS.t20 sg13_lv_nmos ad=0.19p pd=1.38u as=0.19p ps=1.38u w=1u l=0.13u
X64 voutp.t6 iqmod_mixer_se2diff_pex_half_inv_0.iqmod_mixer_se2diff_pex_inv_NF18$1_0.vout.t0 VDD.t161 VDD.t32 sg13_lv_pmos ad=0.57p pd=3.38u as=0.57p ps=3.38u w=3u l=0.13u
X65 iqmod_mixer_se2diff_pex_half_inv_0.iqmod_mixer_se2diff_pex_inv_NF2$1_0.vout.t8 vin.t3 VDD.t2 VDD.t1 sg13_lv_pmos ad=0.57p pd=3.38u as=0.57p ps=3.38u w=3u l=0.13u
X66 VSS.t249 VSS.t248 VSS.t249 VSS.t211 sg13_lv_nmos ad=0.19p pd=1.38u as=0 ps=0 w=1u l=0.13u
X67 VSS.t29 iqmod_mixer_se2diff_pex_half_tg_0.iqmod_mixer_se2diff_pex_inv_NF18_0.vout.t0 voutn.t16 VSS.t28 sg13_lv_nmos ad=0.19p pd=1.38u as=0.19p ps=1.38u w=1u l=0.13u
X68 voutn.t19 iqmod_mixer_se2diff_pex_half_tg_0.iqmod_mixer_se2diff_pex_inv_NF18_0.vout.t0 VDD.t87 VDD.t38 sg13_lv_pmos ad=0.57p pd=3.38u as=0.57p ps=3.38u w=3u l=0.13u
X69 VDD.t42 VDD.t41 VDD.t42 VDD.t38 sg13_lv_pmos ad=0.57p pd=3.38u as=0 ps=0 w=3u l=0.13u
X70 VSS.t193 iqmod_mixer_se2diff_pex_half_inv_0.iqmod_mixer_se2diff_pex_inv_NF6$1_2.vin.t6 iqmod_mixer_se2diff_pex_half_inv_0.iqmod_mixer_se2diff_pex_inv_NF6$1_2.vout.t1 VSS.t21 sg13_lv_nmos ad=0.19p pd=1.38u as=0.19p ps=1.38u w=1u l=0.13u
X71 VSS.t185 iqmod_mixer_se2diff_pex_half_inv_0.iqmod_mixer_se2diff_pex_inv_NF6$1_1.vout.t0 iqmod_mixer_se2diff_pex_half_inv_0.iqmod_mixer_se2diff_pex_inv_NF18$1_0.vout.t0 VSS.t184 sg13_lv_nmos ad=0.19p pd=1.38u as=0.19p ps=1.38u w=1u l=0.13u
X72 iqmod_mixer_se2diff_pex_half_inv_0.iqmod_mixer_se2diff_pex_inv_NF18$1_0.vout.t0 iqmod_mixer_se2diff_pex_half_inv_0.iqmod_mixer_se2diff_pex_inv_NF6$1_1.vout.t0 VSS.t176 VSS.t177 sg13_lv_nmos ad=0.19p pd=1.38u as=0.19p ps=1.38u w=1u l=0.13u
X73 VDD.t225 iqmod_mixer_se2diff_pex_half_tg_0.iqmod_mixer_se2diff_pex_inv_NF6_0.vout.t0 iqmod_mixer_se2diff_pex_half_tg_0.iqmod_mixer_se2diff_pex_inv_NF18_0.vout.t0 VDD.t38 sg13_lv_pmos ad=0.57p pd=3.38u as=0.57p ps=3.38u w=3u l=0.13u
X74 voutn.t10 iqmod_mixer_se2diff_pex_half_tg_0.iqmod_mixer_se2diff_pex_inv_NF18_0.vout.t0 VDD.t117 VDD.t38 sg13_lv_pmos ad=0.57p pd=3.38u as=0.57p ps=3.38u w=3u l=0.13u
X75 VSS.t121 iqmod_mixer_se2diff_pex_half_inv_0.iqmod_mixer_se2diff_pex_inv_NF18$1_0.vout.t0 voutp.t9 VSS.t46 sg13_lv_nmos ad=0.19p pd=1.38u as=0.19p ps=1.38u w=1u l=0.13u
X76 voutp.t24 iqmod_mixer_se2diff_pex_half_inv_0.iqmod_mixer_se2diff_pex_inv_NF18$1_0.vout.t0 VSS.t115 VSS.t39 sg13_lv_nmos ad=0.19p pd=1.38u as=0.19p ps=1.38u w=1u l=0.13u
X77 VDD.t25 iqmod_mixer_se2diff_pex_half_inv_0.iqmod_mixer_se2diff_pex_inv_NF6$1_2.vout.t10 iqmod_mixer_se2diff_pex_half_inv_0.iqmod_mixer_se2diff_pex_inv_NF6$1_1.vout.t0 VDD.t1 sg13_lv_pmos ad=0.57p pd=3.38u as=0.57p ps=3.38u w=3u l=0.13u
X78 iqmod_mixer_se2diff_pex_half_inv_0.iqmod_mixer_se2diff_pex_inv_NF18$1_0.vout.t0 iqmod_mixer_se2diff_pex_half_inv_0.iqmod_mixer_se2diff_pex_inv_NF6$1_1.vout.t0 VDD.t27 VDD.t1 sg13_lv_pmos ad=0.57p pd=3.38u as=0.57p ps=3.38u w=3u l=0.13u
X79 VDD.t91 iqmod_mixer_se2diff_pex_half_tg_0.iqmod_mixer_se2diff_pex_inv_NF18_0.vout.t0 voutn.t35 VDD.t38 sg13_lv_pmos ad=0.57p pd=3.38u as=0.57p ps=3.38u w=3u l=0.13u
X80 VDD.t181 iqmod_mixer_se2diff_pex_half_inv_0.iqmod_mixer_se2diff_pex_inv_NF18$1_0.vout.t0 voutp.t51 VDD.t32 sg13_lv_pmos ad=0.57p pd=3.38u as=0.57p ps=3.38u w=3u l=0.13u
X81 voutp.t34 iqmod_mixer_se2diff_pex_half_inv_0.iqmod_mixer_se2diff_pex_inv_NF18$1_0.vout.t0 VDD.t177 VDD.t32 sg13_lv_pmos ad=0.57p pd=3.38u as=0.57p ps=3.38u w=3u l=0.13u
X82 voutn.t8 iqmod_mixer_se2diff_pex_half_tg_0.iqmod_mixer_se2diff_pex_inv_NF18_0.vout.t0 VDD.t97 VDD.t38 sg13_lv_pmos ad=0.57p pd=3.38u as=0.57p ps=3.38u w=3u l=0.13u
X83 VDD.t247 iqmod_mixer_se2diff_pex_half_inv_0.iqmod_mixer_se2diff_pex_inv_NF6$1_2.vin.t7 iqmod_mixer_se2diff_pex_half_inv_0.iqmod_mixer_se2diff_pex_inv_NF6$1_2.vout.t6 VDD.t1 sg13_lv_pmos ad=0.57p pd=3.38u as=0.57p ps=3.38u w=3u l=0.13u
X84 voutp.t40 iqmod_mixer_se2diff_pex_half_inv_0.iqmod_mixer_se2diff_pex_inv_NF18$1_0.vout.t0 VDD.t149 VDD.t32 sg13_lv_pmos ad=0.57p pd=3.38u as=0.57p ps=3.38u w=3u l=0.13u
X85 iqmod_mixer_se2diff_pex_half_inv_0.iqmod_mixer_se2diff_pex_inv_NF6$1_2.vout.t5 iqmod_mixer_se2diff_pex_half_inv_0.iqmod_mixer_se2diff_pex_inv_NF6$1_2.vin.t7 VDD.t12 VDD.t1 sg13_lv_pmos ad=0.57p pd=3.38u as=0.57p ps=3.38u w=3u l=0.13u
X86 VSS.t25 iqmod_mixer_se2diff_pex_half_tg_0.iqmod_mixer_se2diff_pex_tg_NF6_0.v_b.t7 iqmod_mixer_se2diff_pex_half_inv_0.iqmod_mixer_se2diff_pex_inv_NF2$1_1.vout.t5 VSS.t24 sg13_lv_nmos ad=0.19p pd=1.38u as=0.19p ps=1.38u w=1u l=0.13u
X87 VSS.t157 iqmod_mixer_se2diff_pex_half_inv_0.iqmod_mixer_se2diff_pex_inv_NF18$1_0.vout.t0 voutp.t4 VSS.t100 sg13_lv_nmos ad=0.19p pd=1.38u as=0.19p ps=1.38u w=1u l=0.13u
X88 iqmod_mixer_se2diff_pex_half_inv_0.iqmod_mixer_se2diff_pex_inv_NF2$1_1.vout.t4 iqmod_mixer_se2diff_pex_half_tg_0.iqmod_mixer_se2diff_pex_tg_NF6_0.v_b.t7 VSS.t19 VSS.t20 sg13_lv_nmos ad=0.19p pd=1.38u as=0.19p ps=1.38u w=1u l=0.13u
X89 voutp.t45 iqmod_mixer_se2diff_pex_half_inv_0.iqmod_mixer_se2diff_pex_inv_NF18$1_0.vout.t0 VSS.t151 VSS.t93 sg13_lv_nmos ad=0.19p pd=1.38u as=0.19p ps=1.38u w=1u l=0.13u
X90 VSS.t95 iqmod_mixer_se2diff_pex_half_tg_0.iqmod_mixer_se2diff_pex_inv_NF18_0.vout.t0 voutn.t21 VSS.t94 sg13_lv_nmos ad=0.19p pd=1.38u as=0.19p ps=1.38u w=1u l=0.13u
X91 voutp.t38 iqmod_mixer_se2diff_pex_half_inv_0.iqmod_mixer_se2diff_pex_inv_NF18$1_0.vout.t0 VDD.t145 VDD.t32 sg13_lv_pmos ad=0.57p pd=3.38u as=0.57p ps=3.38u w=3u l=0.13u
X92 voutp.t48 iqmod_mixer_se2diff_pex_half_inv_0.iqmod_mixer_se2diff_pex_inv_NF18$1_0.vout.t0 VDD.t173 VDD.t32 sg13_lv_pmos ad=0.57p pd=3.38u as=0.57p ps=3.38u w=3u l=0.13u
X93 voutn.t40 iqmod_mixer_se2diff_pex_half_tg_0.iqmod_mixer_se2diff_pex_inv_NF18_0.vout.t0 VSS.t47 VSS.t48 sg13_lv_nmos ad=0.19p pd=1.38u as=0.19p ps=1.38u w=1u l=0.13u
X94 voutn.t20 iqmod_mixer_se2diff_pex_half_tg_0.iqmod_mixer_se2diff_pex_inv_NF18_0.vout.t0 VSS.t89 VSS.t90 sg13_lv_nmos ad=0.19p pd=1.38u as=0.19p ps=1.38u w=1u l=0.13u
X95 VDD.t143 iqmod_mixer_se2diff_pex_half_inv_0.iqmod_mixer_se2diff_pex_inv_NF18$1_0.vout.t0 voutp.t16 VDD.t32 sg13_lv_pmos ad=0.57p pd=3.38u as=0.57p ps=3.38u w=3u l=0.13u
X96 VSS.t86 iqmod_mixer_se2diff_pex_half_tg_0.iqmod_mixer_se2diff_pex_inv_NF18_0.vout.t0 voutn.t51 VSS.t85 sg13_lv_nmos ad=0.19p pd=1.38u as=0.19p ps=1.38u w=1u l=0.13u
X97 voutp.t5 iqmod_mixer_se2diff_pex_half_inv_0.iqmod_mixer_se2diff_pex_inv_NF18$1_0.vout.t0 VSS.t157 VSS.t102 sg13_lv_nmos ad=0.19p pd=1.38u as=0.19p ps=1.38u w=1u l=0.13u
X98 VSS.t153 iqmod_mixer_se2diff_pex_half_inv_0.iqmod_mixer_se2diff_pex_inv_NF18$1_0.vout.t0 voutp.t45 VSS.t94 sg13_lv_nmos ad=0.19p pd=1.38u as=0.19p ps=1.38u w=1u l=0.13u
X99 iqmod_mixer_se2diff_pex_half_inv_0.iqmod_mixer_se2diff_pex_inv_NF6$1_2.vout.t2 iqmod_mixer_se2diff_pex_half_inv_0.iqmod_mixer_se2diff_pex_inv_NF6$1_2.vin.t6 VSS.t193 VSS.t23 sg13_lv_nmos ad=0.19p pd=1.38u as=0.19p ps=1.38u w=1u l=0.13u
X100 iqmod_mixer_se2diff_pex_half_inv_0.iqmod_mixer_se2diff_pex_inv_NF18$1_0.vout.t0 iqmod_mixer_se2diff_pex_half_inv_0.iqmod_mixer_se2diff_pex_inv_NF6$1_1.vout.t0 VSS.t185 VSS.t186 sg13_lv_nmos ad=0.19p pd=1.38u as=0.19p ps=1.38u w=1u l=0.13u
X101 voutn.t4 iqmod_mixer_se2diff_pex_half_tg_0.iqmod_mixer_se2diff_pex_inv_NF18_0.vout.t0 VSS.t41 VSS.t42 sg13_lv_nmos ad=0.19p pd=1.38u as=0.19p ps=1.38u w=1u l=0.13u
X102 VSS.t179 iqmod_mixer_se2diff_pex_half_inv_0.iqmod_mixer_se2diff_pex_inv_NF6$1_1.vout.t0 iqmod_mixer_se2diff_pex_half_inv_0.iqmod_mixer_se2diff_pex_inv_NF18$1_0.vout.t0 VSS.t178 sg13_lv_nmos ad=0.19p pd=1.38u as=0.19p ps=1.38u w=1u l=0.13u
X103 VDD.t85 iqmod_mixer_se2diff_pex_half_tg_0.iqmod_mixer_se2diff_pex_inv_NF18_0.vout.t0 voutn.t33 VDD.t38 sg13_lv_pmos ad=0.57p pd=3.38u as=0.57p ps=3.38u w=3u l=0.13u
X104 VDD.t40 VDD.t37 VDD.t39 VDD.t38 sg13_lv_pmos ad=1.02p pd=6.68u as=0 ps=0 w=3u l=0.13u
X105 voutp.t27 iqmod_mixer_se2diff_pex_half_inv_0.iqmod_mixer_se2diff_pex_inv_NF18$1_0.vout.t0 VSS.t121 VSS.t48 sg13_lv_nmos ad=0.19p pd=1.38u as=0.19p ps=1.38u w=1u l=0.13u
X106 iqmod_mixer_se2diff_pex_half_tg_0.iqmod_mixer_se2diff_pex_inv_NF18_0.vout.t0 iqmod_mixer_se2diff_pex_half_tg_0.iqmod_mixer_se2diff_pex_inv_NF6_0.vout.t0 VDD.t225 VDD.t38 sg13_lv_pmos ad=0.57p pd=3.38u as=0.57p ps=3.38u w=3u l=0.13u
X107 VDD.t119 iqmod_mixer_se2diff_pex_half_tg_0.iqmod_mixer_se2diff_pex_inv_NF18_0.vout.t0 voutn.t10 VDD.t38 sg13_lv_pmos ad=0.57p pd=3.38u as=0.57p ps=3.38u w=3u l=0.13u
X108 iqmod_mixer_se2diff_pex_half_inv_0.iqmod_mixer_se2diff_pex_inv_NF18$1_0.vout.t0 iqmod_mixer_se2diff_pex_half_inv_0.iqmod_mixer_se2diff_pex_inv_NF6$1_1.vout.t0 VDD.t199 VDD.t1 sg13_lv_pmos ad=0.57p pd=3.38u as=0.57p ps=3.38u w=3u l=0.13u
X109 iqmod_mixer_se2diff_pex_half_tg_0.iqmod_mixer_se2diff_pex_inv_NF18_0.vout.t0 iqmod_mixer_se2diff_pex_half_tg_0.iqmod_mixer_se2diff_pex_inv_NF6_0.vout.t0 VDD.t221 VDD.t38 sg13_lv_pmos ad=0.57p pd=3.38u as=0.57p ps=3.38u w=3u l=0.13u
X110 VDD.t115 iqmod_mixer_se2diff_pex_half_tg_0.iqmod_mixer_se2diff_pex_inv_NF18_0.vout.t0 voutn.t13 VDD.t38 sg13_lv_pmos ad=0.57p pd=3.38u as=0.57p ps=3.38u w=3u l=0.13u
X111 VDD.t197 iqmod_mixer_se2diff_pex_half_inv_0.iqmod_mixer_se2diff_pex_inv_NF6$1_1.vout.t0 iqmod_mixer_se2diff_pex_half_inv_0.iqmod_mixer_se2diff_pex_inv_NF18$1_0.vout.t0 VDD.t1 sg13_lv_pmos ad=0.57p pd=3.38u as=0.57p ps=3.38u w=3u l=0.13u
X112 iqmod_mixer_se2diff_pex_half_inv_0.iqmod_mixer_se2diff_pex_inv_NF18$1_0.vout.t0 iqmod_mixer_se2diff_pex_half_inv_0.iqmod_mixer_se2diff_pex_inv_NF6$1_1.vout.t0 VDD.t193 VDD.t1 sg13_lv_pmos ad=0.57p pd=3.38u as=0.57p ps=3.38u w=3u l=0.13u
X113 iqmod_mixer_se2diff_pex_half_tg_0.iqmod_mixer_se2diff_pex_inv_NF18_0.vout.t0 iqmod_mixer_se2diff_pex_half_tg_0.iqmod_mixer_se2diff_pex_inv_NF6_0.vout.t0 VDD.t217 VDD.t38 sg13_lv_pmos ad=0.57p pd=3.38u as=0.57p ps=3.38u w=3u l=0.13u
X114 VDD.t99 iqmod_mixer_se2diff_pex_half_tg_0.iqmod_mixer_se2diff_pex_inv_NF18_0.vout.t0 voutn.t8 VDD.t38 sg13_lv_pmos ad=0.57p pd=3.38u as=0.57p ps=3.38u w=3u l=0.13u
X115 VSS.t286 iqmod_mixer_se2diff_pex_half_tg_0.iqmod_mixer_se2diff_pex_inv_NF6_0.vout.t0 iqmod_mixer_se2diff_pex_half_tg_0.iqmod_mixer_se2diff_pex_inv_NF18_0.vout.t0 VSS.t181 sg13_lv_nmos ad=0.19p pd=1.38u as=0.19p ps=1.38u w=1u l=0.13u
X116 VDD.t57 iqmod_mixer_se2diff_pex_half_inv_0.iqmod_mixer_se2diff_pex_inv_NF2$1_1.vout.t8 iqmod_mixer_se2diff_pex_half_tg_0.iqmod_mixer_se2diff_pex_inv_NF6_0.vout.t0 VDD.t38 sg13_lv_pmos ad=0.57p pd=3.38u as=0.57p ps=3.38u w=3u l=0.13u
X117 VDD.t36 iqmod_mixer_se2diff_pex_half_inv_0.iqmod_mixer_se2diff_pex_inv_NF18$1_0.vout.t0 voutp.t50 VDD.t32 sg13_lv_pmos ad=0.57p pd=3.38u as=0.57p ps=3.38u w=3u l=0.13u
X118 VDD.t95 iqmod_mixer_se2diff_pex_half_tg_0.iqmod_mixer_se2diff_pex_inv_NF18_0.vout.t0 voutn.t47 VDD.t38 sg13_lv_pmos ad=0.57p pd=3.38u as=0.57p ps=3.38u w=3u l=0.13u
X119 VDD.t15 VDD.t14 VDD.t15 VDD.t1 sg13_lv_pmos ad=0.57p pd=3.38u as=0 ps=0 w=3u l=0.13u
X120 VDD.t20 iqmod_mixer_se2diff_pex_half_inv_0.iqmod_mixer_se2diff_pex_inv_NF6$1_2.vout.t11 iqmod_mixer_se2diff_pex_half_inv_0.iqmod_mixer_se2diff_pex_inv_NF2$1_1.vout.t6 VDD.t1 sg13_lv_pmos ad=0.57p pd=3.38u as=0.57p ps=3.38u w=3u l=0.13u
X121 VSS.t282 iqmod_mixer_se2diff_pex_half_tg_0.iqmod_mixer_se2diff_pex_inv_NF6_0.vout.t0 iqmod_mixer_se2diff_pex_half_tg_0.iqmod_mixer_se2diff_pex_inv_NF18_0.vout.t0 VSS.t175 sg13_lv_nmos ad=0.19p pd=1.38u as=0.19p ps=1.38u w=1u l=0.13u
X122 iqmod_mixer_se2diff_pex_half_tg_0.iqmod_mixer_se2diff_pex_inv_NF18_0.vout.t0 iqmod_mixer_se2diff_pex_half_tg_0.iqmod_mixer_se2diff_pex_inv_NF6_0.vout.t0 VSS.t278 VSS.t171 sg13_lv_nmos ad=0.19p pd=1.38u as=0.19p ps=1.38u w=1u l=0.13u
X123 VSS.t159 iqmod_mixer_se2diff_pex_half_inv_0.iqmod_mixer_se2diff_pex_inv_NF18$1_0.vout.t0 voutp.t5 VSS.t103 sg13_lv_nmos ad=0.19p pd=1.38u as=0.19p ps=1.38u w=1u l=0.13u
X124 VSS.t104 iqmod_mixer_se2diff_pex_half_tg_0.iqmod_mixer_se2diff_pex_inv_NF18_0.vout.t0 voutn.t2 VSS.t103 sg13_lv_nmos ad=0.19p pd=1.38u as=0.19p ps=1.38u w=1u l=0.13u
X125 voutp.t46 iqmod_mixer_se2diff_pex_half_inv_0.iqmod_mixer_se2diff_pex_inv_NF18$1_0.vout.t0 VSS.t153 VSS.t96 sg13_lv_nmos ad=0.19p pd=1.38u as=0.19p ps=1.38u w=1u l=0.13u
X126 VSS.t195 iqmod_mixer_se2diff_pex_half_inv_0.iqmod_mixer_se2diff_pex_inv_NF6$1_2.vin.t6 iqmod_mixer_se2diff_pex_half_inv_0.iqmod_mixer_se2diff_pex_inv_NF6$1_2.vout.t2 VSS.t24 sg13_lv_nmos ad=0.19p pd=1.38u as=0.19p ps=1.38u w=1u l=0.13u
X127 voutn.t29 iqmod_mixer_se2diff_pex_half_tg_0.iqmod_mixer_se2diff_pex_inv_NF18_0.vout.t0 VSS.t98 VSS.t99 sg13_lv_nmos ad=0.19p pd=1.38u as=0.19p ps=1.38u w=1u l=0.13u
X128 VSS.t163 iqmod_mixer_se2diff_pex_half_inv_0.iqmod_mixer_se2diff_pex_inv_NF6$1_1.vout.t0 iqmod_mixer_se2diff_pex_half_inv_0.iqmod_mixer_se2diff_pex_inv_NF18$1_0.vout.t0 VSS.t187 sg13_lv_nmos ad=0.19p pd=1.38u as=0.19p ps=1.38u w=1u l=0.13u
X129 iqmod_mixer_se2diff_pex_half_inv_0.iqmod_mixer_se2diff_pex_inv_NF18$1_0.vout.t0 iqmod_mixer_se2diff_pex_half_inv_0.iqmod_mixer_se2diff_pex_inv_NF6$1_1.vout.t0 VSS.t179 VSS.t180 sg13_lv_nmos ad=0.19p pd=1.38u as=0.19p ps=1.38u w=1u l=0.13u
X130 VSS.t257 VSS.t255 VSS.t197 VSS.t224 sg13_lv_nmos ad=0.34p pd=2.68u as=0 ps=0 w=1u l=0.13u
X131 VDD.t30 VDD.t29 VDD.t30 VDD.t1 sg13_lv_pmos ad=0.57p pd=3.38u as=0 ps=0 w=3u l=0.13u
X132 voutp.t17 iqmod_mixer_se2diff_pex_half_inv_0.iqmod_mixer_se2diff_pex_inv_NF18$1_0.vout.t0 VDD.t159 VDD.t32 sg13_lv_pmos ad=0.57p pd=3.38u as=0.57p ps=3.38u w=3u l=0.13u
X133 VDD.t203 iqmod_mixer_se2diff_pex_half_inv_0.iqmod_mixer_se2diff_pex_inv_NF6$1_1.vout.t0 iqmod_mixer_se2diff_pex_half_inv_0.iqmod_mixer_se2diff_pex_inv_NF18$1_0.vout.t0 VDD.t1 sg13_lv_pmos ad=0.57p pd=3.38u as=0.57p ps=3.38u w=3u l=0.13u
X134 VDD.t157 iqmod_mixer_se2diff_pex_half_inv_0.iqmod_mixer_se2diff_pex_inv_NF18$1_0.vout.t0 voutp.t35 VDD.t32 sg13_lv_pmos ad=0.57p pd=3.38u as=0.57p ps=3.38u w=3u l=0.13u
X135 VSS.t215 VSS.t213 VSS.t204 VSS.t214 sg13_lv_nmos ad=0.34p pd=2.68u as=0 ps=0 w=1u l=0.13u
X136 voutp.t28 iqmod_mixer_se2diff_pex_half_inv_0.iqmod_mixer_se2diff_pex_inv_NF18$1_0.vout.t0 VSS.t159 VSS.t105 sg13_lv_nmos ad=0.19p pd=1.38u as=0.19p ps=1.38u w=1u l=0.13u
X137 VSS.t155 iqmod_mixer_se2diff_pex_half_inv_0.iqmod_mixer_se2diff_pex_inv_NF18$1_0.vout.t0 voutp.t46 VSS.t97 sg13_lv_nmos ad=0.19p pd=1.38u as=0.19p ps=1.38u w=1u l=0.13u
X138 VSS.t232 VSS.t230 VSS.t1 VSS.t231 sg13_lv_nmos ad=0.34p pd=2.68u as=0 ps=0 w=1u l=0.13u
X139 VSS.t288 iqmod_mixer_se2diff_pex_half_tg_0.iqmod_mixer_se2diff_pex_inv_NF6_0.vout.t0 iqmod_mixer_se2diff_pex_half_tg_0.iqmod_mixer_se2diff_pex_inv_NF18_0.vout.t0 VSS.t184 sg13_lv_nmos ad=0.19p pd=1.38u as=0.19p ps=1.38u w=1u l=0.13u
X140 iqmod_mixer_se2diff_pex_half_inv_0.iqmod_mixer_se2diff_pex_inv_NF18$1_0.vout.t1 iqmod_mixer_se2diff_pex_half_inv_0.iqmod_mixer_se2diff_pex_inv_NF6$1_1.vout.t0 VSS.t163 VSS.t162 sg13_lv_nmos ad=0.19p pd=1.38u as=0.19p ps=1.38u w=1u l=0.13u
X141 VSS.t59 iqmod_mixer_se2diff_pex_half_tg_0.iqmod_mixer_se2diff_pex_inv_NF18_0.vout.t0 voutn.t24 VSS.t58 sg13_lv_nmos ad=0.19p pd=1.38u as=0.19p ps=1.38u w=1u l=0.13u
X142 VSS.t182 iqmod_mixer_se2diff_pex_half_inv_0.iqmod_mixer_se2diff_pex_inv_NF6$1_1.vout.t0 iqmod_mixer_se2diff_pex_half_inv_0.iqmod_mixer_se2diff_pex_inv_NF18$1_0.vout.t0 VSS.t181 sg13_lv_nmos ad=0.19p pd=1.38u as=0.19p ps=1.38u w=1u l=0.13u
X143 voutn.t45 iqmod_mixer_se2diff_pex_half_tg_0.iqmod_mixer_se2diff_pex_inv_NF18_0.vout.t0 VSS.t53 VSS.t54 sg13_lv_nmos ad=0.19p pd=1.38u as=0.19p ps=1.38u w=1u l=0.13u
X144 VDD.t71 iqmod_mixer_se2diff_pex_half_inv_0.iqmod_mixer_se2diff_pex_inv_NF6$1_2.vout.t10 iqmod_mixer_se2diff_pex_half_inv_0.iqmod_mixer_se2diff_pex_inv_NF6$1_1.vout.t0 VDD.t1 sg13_lv_pmos ad=0.57p pd=3.38u as=0.57p ps=3.38u w=3u l=0.13u
X145 VDD.t81 iqmod_mixer_se2diff_pex_half_tg_0.iqmod_mixer_se2diff_pex_inv_NF18_0.vout.t0 voutn.t31 VDD.t38 sg13_lv_pmos ad=0.57p pd=3.38u as=0.57p ps=3.38u w=3u l=0.13u
X146 iqmod_mixer_se2diff_pex_half_inv_0.iqmod_mixer_se2diff_pex_inv_NF6$1_1.vout.t0 iqmod_mixer_se2diff_pex_half_inv_0.iqmod_mixer_se2diff_pex_inv_NF6$1_2.vout.t10 VDD.t22 VDD.t1 sg13_lv_pmos ad=0.57p pd=3.38u as=0.57p ps=3.38u w=3u l=0.13u
X147 VDD.t67 iqmod_mixer_se2diff_pex_half_tg_0.iqmod_mixer_se2diff_pex_inv_NF18_0.vout.t0 voutn.t37 VDD.t38 sg13_lv_pmos ad=0.57p pd=3.38u as=0.57p ps=3.38u w=3u l=0.13u
X148 VSS.t189 iqmod_mixer_se2diff_pex_half_inv_0.iqmod_mixer_se2diff_pex_inv_NF6$1_1.vout.t0 iqmod_mixer_se2diff_pex_half_inv_0.iqmod_mixer_se2diff_pex_inv_NF18$1_0.vout.t1 VSS.t188 sg13_lv_nmos ad=0.19p pd=1.38u as=0.19p ps=1.38u w=1u l=0.13u
X149 iqmod_mixer_se2diff_pex_half_inv_0.iqmod_mixer_se2diff_pex_inv_NF18$1_0.vout.t0 iqmod_mixer_se2diff_pex_half_inv_0.iqmod_mixer_se2diff_pex_inv_NF6$1_1.vout.t0 VSS.t182 VSS.t183 sg13_lv_nmos ad=0.19p pd=1.38u as=0.19p ps=1.38u w=1u l=0.13u
X150 iqmod_mixer_se2diff_pex_half_tg_0.iqmod_mixer_se2diff_pex_inv_NF18_0.vout.t0 iqmod_mixer_se2diff_pex_half_tg_0.iqmod_mixer_se2diff_pex_inv_NF6_0.vout.t0 VDD.t229 VDD.t38 sg13_lv_pmos ad=0.57p pd=3.38u as=0.57p ps=3.38u w=3u l=0.13u
X151 VDD.t77 iqmod_mixer_se2diff_pex_half_tg_0.iqmod_mixer_se2diff_pex_inv_NF18_0.vout.t0 voutn.t52 VDD.t38 sg13_lv_pmos ad=0.57p pd=3.38u as=0.57p ps=3.38u w=3u l=0.13u
X152 VDD.t111 iqmod_mixer_se2diff_pex_half_tg_0.iqmod_mixer_se2diff_pex_inv_NF18_0.vout.t0 voutn.t32 VDD.t38 sg13_lv_pmos ad=0.57p pd=3.38u as=0.57p ps=3.38u w=3u l=0.13u
X153 VDD.t123 iqmod_mixer_se2diff_pex_half_tg_0.iqmod_mixer_se2diff_pex_inv_NF18_0.vout.t0 voutn.t42 VDD.t38 sg13_lv_pmos ad=0.57p pd=3.38u as=0.57p ps=3.38u w=3u l=0.13u
X154 VDD.t239 iqmod_mixer_se2diff_pex_half_inv_0.iqmod_mixer_se2diff_pex_inv_NF2$1_0.vout.t13 iqmod_mixer_se2diff_pex_half_inv_0.iqmod_mixer_se2diff_pex_inv_NF6$1_2.vin.t4 VDD.t1 sg13_lv_pmos ad=0.57p pd=3.38u as=0.57p ps=3.38u w=3u l=0.13u